  
       XFOIL         Version 6.99
  
 Calculated polar for: NACA 0012                                       
  
 1 1 Reynolds number fixed          Mach number fixed         
  
 xtrf =   1.000 (top)        1.000 (bottom)  
 Mach =   0.000     Re =     2.332 e 6     Ncrit =   9.000
  
   alpha    CL        CD       CDp       CM     Top_Xtr  Bot_Xtr
  ------ -------- --------- --------- -------- -------- --------
 -15.000  -0.9326   0.01385   0.00865  -0.1038   0.7661   0.0162
 -14.500  -0.8799   0.01320   0.00796  -0.1043   0.7665   0.0172
 -14.000  -0.8272   0.01247   0.00717  -0.1047   0.7669   0.0186
 -13.500  -0.7735   0.01184   0.00652  -0.1052   0.7673   0.0202
 -13.000  -0.7189   0.01133   0.00596  -0.1057   0.7676   0.0215
 -12.500  -0.6644   0.01075   0.00539  -0.1061   0.7680   0.0242
 -12.000  -0.6090   0.01028   0.00489  -0.1066   0.7684   0.0267
 -11.500  -0.5531   0.00986   0.00447  -0.1072   0.7687   0.0296
 -11.000  -0.4971   0.00942   0.00405  -0.1077   0.7691   0.0342
 -10.500  -0.4407   0.00904   0.00368  -0.1083   0.7694   0.0398
 -10.000  -0.3840   0.00869   0.00336  -0.1088   0.7697   0.0469
  -9.500  -0.3270   0.00837   0.00309  -0.1094   0.7699   0.0563
  -9.000  -0.2697   0.00801   0.00278  -0.1100   0.7706   0.0694
  -8.500  -0.2123   0.00763   0.00249  -0.1105   0.7715   0.0874
  -8.000  -0.1547   0.00727   0.00224  -0.1111   0.7724   0.1103
  -7.500  -0.0969   0.00694   0.00202  -0.1117   0.7734   0.1390
  -7.000  -0.0389   0.00664   0.00185  -0.1123   0.7740   0.1727
  -6.500   0.0186   0.00645   0.00178  -0.1128   0.7707   0.2087
  -6.000   0.0767   0.00613   0.00159  -0.1133   0.7687   0.2476
  -5.500   0.1349   0.00584   0.00143  -0.1138   0.7671   0.2863
  -5.000   0.1933   0.00561   0.00131  -0.1143   0.7650   0.3239
  -4.500   0.2517   0.00541   0.00121  -0.1147   0.7626   0.3590
  -4.000   0.3101   0.00523   0.00113  -0.1151   0.7595   0.3927
  -3.500   0.3682   0.00513   0.00110  -0.1155   0.7551   0.4247
  -3.000   0.4267   0.00496   0.00105  -0.1158   0.7514   0.4534
  -2.500   0.4852   0.00482   0.00099  -0.1161   0.7445   0.4800
  -2.000   0.5432   0.00471   0.00095  -0.1163   0.7300   0.5056
  -1.500   0.5808   0.00604   0.00147  -0.1128   0.4976   0.5260
  -1.000   0.6283   0.00663   0.00177  -0.1111   0.4079   0.5463
  -0.500   0.6760   0.00718   0.00206  -0.1094   0.3340   0.5647
  -0.000   0.7239   0.00770   0.00237  -0.1077   0.2703   0.5814
   0.500   0.7717   0.00823   0.00270  -0.1060   0.2143   0.5966
   1.000   0.8194   0.00877   0.00305  -0.1043   0.1663   0.6098
   1.500   0.8672   0.00933   0.00343  -0.1026   0.1263   0.6213
   2.500   0.9639   0.01035   0.00424  -0.0994   0.0759   0.6413
   3.000   1.0121   0.01087   0.00467  -0.0978   0.0598   0.6495
   3.500   1.0601   0.01138   0.00513  -0.0962   0.0490   0.6564
   4.000   1.1074   0.01191   0.00561  -0.0944   0.0407   0.6628
   4.500   1.1513   0.01242   0.00610  -0.0919   0.0349   0.6679
   5.000   1.1954   0.01299   0.00665  -0.0895   0.0302   0.6725
   5.500   1.2400   0.01363   0.00727  -0.0873   0.0262   0.6770
   6.000   1.2846   0.01424   0.00788  -0.0852   0.0239   0.6804
   6.500   1.3281   0.01493   0.00858  -0.0829   0.0215   0.6835
   7.000   1.3707   0.01566   0.00930  -0.0806   0.0196   0.6868
   7.500   1.4120   0.01646   0.01013  -0.0780   0.0180   0.6897
   8.000   1.4530   0.01722   0.01093  -0.0755   0.0168   0.6921
   8.500   1.4910   0.01820   0.01193  -0.0726   0.0153   0.6948
   9.000   1.5295   0.01909   0.01287  -0.0698   0.0146   0.6975
   9.500   1.5663   0.02004   0.01389  -0.0669   0.0138   0.6998
  10.000   1.6007   0.02117   0.01507  -0.0638   0.0130   0.7022
  10.500   1.6312   0.02258   0.01656  -0.0602   0.0121   0.7046
  11.000   1.6633   0.02380   0.01786  -0.0570   0.0118   0.7066
  11.500   1.6932   0.02516   0.01931  -0.0536   0.0114   0.7092
  12.000   1.7205   0.02672   0.02096  -0.0501   0.0109   0.7113
  12.500   1.7439   0.02856   0.02289  -0.0463   0.0104   0.7131
  13.000   1.7582   0.03113   0.02560  -0.0418   0.0097   0.7153
  13.500   1.7780   0.03327   0.02786  -0.0381   0.0095   0.7176
  14.000   1.7946   0.03571   0.03042  -0.0343   0.0094   0.7195
  14.500   1.8074   0.03851   0.03336  -0.0306   0.0091   0.7216
  15.000   1.8167   0.04178   0.03677  -0.0270   0.0089   0.7235
  15.500   1.8221   0.04560   0.04073  -0.0238   0.0087   0.7259
  16.000   1.8214   0.05028   0.04557  -0.0209   0.0085   0.7287
  16.500   1.8154   0.05604   0.05151  -0.0190   0.0083   0.7327
  17.500   1.7720   0.07417   0.07058  -0.0215   0.0080   0.9998
  18.000   1.7264   0.08853   0.08523  -0.0272   0.0079   0.9998
  18.500   1.6607   0.10688   0.10390  -0.0360   0.0079   0.9998
  19.000   1.5807   0.12864   0.12601  -0.0479   0.0080   0.9998
  19.500   1.4901   0.15391   0.15164  -0.0637   0.0081   0.9998
  20.000   1.4122   0.17874   0.17678  -0.0812   0.0082   0.9998
  20.500   1.3576   0.20027   0.19854  -0.0972   0.0081   0.9998
  21.000   1.3296   0.21643   0.21484  -0.1097   0.0079   0.9998
  21.500   1.3109   0.23082   0.22934  -0.1211   0.0075   0.9998
  22.000   1.2998   0.24348   0.24212  -0.1312   0.0074   0.9998
  22.500   1.2823   0.25909   0.25788  -0.1435   0.0072   0.9998
