  
       XFOIL         Version 6.99
  
 Calculated polar for: NACA 0012                                       
  
 1 1 Reynolds number fixed          Mach number fixed         
  
 xtrf =   1.000 (top)        1.000 (bottom)  
 Mach =   0.000     Re =     2.332 e 6     Ncrit =   9.000
  
   alpha    CL        CD       CDp       CM     Top_Xtr  Bot_Xtr
  ------ -------- --------- --------- -------- -------- --------
 -15.000  -1.8312   0.04499   0.03999   0.0300   0.7146   0.0088
 -14.500  -1.8237   0.04145   0.03632   0.0336   0.7135   0.0090
 -14.000  -1.8123   0.03841   0.03314   0.0373   0.7120   0.0092
 -13.500  -1.7976   0.03578   0.03039   0.0411   0.7101   0.0093
 -13.000  -1.7788   0.03354   0.02802   0.0448   0.7084   0.0095
 -12.500  -1.7669   0.03080   0.02513   0.0495   0.7066   0.0101
 -12.000  -1.7455   0.02877   0.02302   0.0535   0.7048   0.0106
 -11.500  -1.7201   0.02707   0.02123   0.0572   0.7028   0.0111
 -11.000  -1.6919   0.02557   0.01964   0.0607   0.7007   0.0115
 -10.500  -1.6610   0.02425   0.01824   0.0640   0.6989   0.0119
 -10.000  -1.6309   0.02281   0.01671   0.0676   0.6966   0.0125
  -9.500  -1.5986   0.02151   0.01537   0.0710   0.6942   0.0134
  -9.000  -1.5628   0.02046   0.01426   0.0740   0.6921   0.0142
  -8.500  -1.5250   0.01955   0.01329   0.0767   0.6899   0.0148
  -8.000  -1.4882   0.01846   0.01217   0.0798   0.6870   0.0162
  -7.500  -1.4487   0.01758   0.01127   0.0824   0.6844   0.0174
  -7.000  -1.4076   0.01680   0.01044   0.0849   0.6820   0.0185
  -6.500  -1.3667   0.01595   0.00960   0.0875   0.6790   0.0206
  -6.000  -1.3236   0.01527   0.00889   0.0898   0.6753   0.0223
  -5.500  -1.2808   0.01452   0.00816   0.0922   0.6718   0.0253
  -5.000  -1.2366   0.01387   0.00751   0.0943   0.6678   0.0284
  -4.500  -1.1918   0.01326   0.00691   0.0964   0.6628   0.0321
  -4.000  -1.1465   0.01267   0.00633   0.0985   0.6573   0.0370
  -3.500  -1.1009   0.01209   0.00579   0.1006   0.6514   0.0439
  -3.000  -1.0557   0.01151   0.00527   0.1027   0.6442   0.0546
  -2.500  -1.0120   0.01098   0.00480   0.1052   0.6367   0.0675
  -2.000  -0.9684   0.01048   0.00438   0.1078   0.6275   0.0846
  -1.500  -0.9224   0.00994   0.00395   0.1099   0.6179   0.1096
  -1.000  -0.8767   0.00938   0.00354   0.1120   0.6060   0.1439
  -0.500  -0.8310   0.00882   0.00315   0.1141   0.5938   0.1867
  -0.000  -0.7855   0.00825   0.00278   0.1163   0.5801   0.2384
   0.500  -0.7401   0.00767   0.00242   0.1184   0.5649   0.3001
   1.000  -0.6942   0.00711   0.00210   0.1205   0.5480   0.3682
   1.500  -0.6487   0.00649   0.00176   0.1226   0.5293   0.4527
   2.000  -0.6063   0.00559   0.00132   0.1253   0.5094   0.5832
   2.500  -0.5607   0.00489   0.00106   0.1274   0.4874   0.7380
   3.000  -0.5028   0.00499   0.00112   0.1272   0.4632   0.7464
   3.500  -0.4443   0.00518   0.00121   0.1269   0.4352   0.7512
   4.000  -0.3857   0.00541   0.00134   0.1265   0.4068   0.7538
   4.500  -0.3275   0.00546   0.00131   0.1261   0.3757   0.7576
   5.000  -0.2692   0.00562   0.00139   0.1257   0.3430   0.7606
   5.500  -0.2108   0.00584   0.00152   0.1253   0.3072   0.7632
   6.000  -0.1524   0.00610   0.00166   0.1248   0.2697   0.7656
   6.500  -0.0941   0.00645   0.00189   0.1243   0.2302   0.7682
   7.000  -0.0356   0.00688   0.00222   0.1237   0.1944   0.7698
   7.500   0.0224   0.00712   0.00233   0.1231   0.1591   0.7697
   8.000   0.0802   0.00735   0.00243   0.1225   0.1285   0.7694
   8.500   0.1378   0.00761   0.00258   0.1218   0.1020   0.7690
   9.000   0.1952   0.00791   0.00278   0.1212   0.0796   0.7686
   9.500   0.2526   0.00819   0.00300   0.1206   0.0649   0.7681
  10.000   0.3098   0.00852   0.00326   0.1199   0.0529   0.7676
  10.500   0.3667   0.00887   0.00357   0.1193   0.0435   0.7671
  11.000   0.4235   0.00923   0.00390   0.1187   0.0373   0.7665
  11.500   0.4801   0.00960   0.00426   0.1181   0.0326   0.7659
  12.000   0.5364   0.01000   0.00467   0.1175   0.0290   0.7654
  12.500   0.5920   0.01050   0.00516   0.1169   0.0256   0.7649
  13.000   0.6476   0.01096   0.00563   0.1162   0.0233   0.7644
  13.500   0.7024   0.01152   0.00622   0.1157   0.0212   0.7639
  14.000   0.7570   0.01207   0.00680   0.1151   0.0197   0.7634
  14.500   0.8102   0.01282   0.00759   0.1145   0.0179   0.7629
  15.000   0.8639   0.01341   0.00822   0.1139   0.0170   0.7624
  15.500   0.9161   0.01419   0.00904   0.1133   0.0159   0.7619
  16.000   0.9663   0.01524   0.01016   0.1127   0.0147   0.7615
  16.500   1.0172   0.01606   0.01106   0.1121   0.0142   0.7610
  17.000   1.0665   0.01705   0.01212   0.1114   0.0136   0.7606
  17.500   1.1134   0.01830   0.01343   0.1107   0.0129   0.7601
  18.000   1.1537   0.02039   0.01568   0.1095   0.0120   0.7596
  18.500   1.1976   0.02205   0.01743   0.1077   0.0117   0.7592
  19.000   1.2364   0.02492   0.02044   0.1036   0.0114   0.7587
  19.500   1.2476   0.03044   0.02612   0.0974   0.0112   0.7582
  20.000   1.2477   0.03679   0.03262   0.0927   0.0109   0.7576
  20.500   1.2321   0.04510   0.04110   0.0872   0.0108   0.7571
  21.000   1.1983   0.05607   0.05226   0.0806   0.0107   0.7567
  21.500   1.1457   0.07037   0.06679   0.0723   0.0107   0.7563
  22.000   1.0721   0.08860   0.08527   0.0622   0.0107   0.7559
  22.500   0.9882   0.10963   0.10655   0.0509   0.0108   0.7556
  23.000   0.9275   0.12790   0.12500   0.0412   0.0108   0.7553
  23.500   0.8833   0.14427   0.14152   0.0323   0.0107   0.7551
  24.000   0.8577   0.15769   0.15503   0.0248   0.0104   0.7548
  24.500   0.8392   0.17033   0.16775   0.0174   0.0101   0.7545
  25.000   0.8248   0.18251   0.18001   0.0100   0.0096   0.7543
