  
       XFOIL         Version 6.99
  
 Calculated polar for: NACA 0012                                       
  
 1 1 Reynolds number fixed          Mach number fixed         
  
 xtrf =   1.000 (top)        1.000 (bottom)  
 Mach =   0.000     Re =     1.521 e 6     Ncrit =   9.000
  
   alpha    CL        CD       CDp       CM     Top_Xtr  Bot_Xtr
  ------ -------- --------- --------- -------- -------- --------
 -15.000  -0.5200   0.01541   0.01021  -0.1636   0.7534   0.0246
 -14.500  -0.4663   0.01497   0.00973  -0.1647   0.7539   0.0270
 -14.000  -0.4121   0.01477   0.00951  -0.1655   0.7546   0.0296
 -13.500  -0.3551   0.01403   0.00874  -0.1668   0.7548   0.0336
 -13.000  -0.2975   0.01341   0.00807  -0.1679   0.7552   0.0379
 -12.500  -0.2398   0.01284   0.00748  -0.1690   0.7556   0.0433
 -12.000  -0.1821   0.01231   0.00696  -0.1701   0.7561   0.0513
 -11.500  -0.1244   0.01182   0.00652  -0.1711   0.7567   0.0626
 -11.000  -0.0671   0.01145   0.00621  -0.1720   0.7576   0.0770
 -10.500  -0.0104   0.01123   0.00609  -0.1727   0.7588   0.0963
 -10.000   0.0459   0.01115   0.00612  -0.1735   0.7603   0.1197
  -9.500   0.1015   0.01114   0.00626  -0.1740   0.7618   0.1493
  -9.000   0.1569   0.01118   0.00643  -0.1744   0.7633   0.1822
  -8.500   0.2123   0.01124   0.00663  -0.1748   0.7646   0.2174
  -8.000   0.2677   0.01135   0.00686  -0.1751   0.7658   0.2540
  -7.500   0.3227   0.01155   0.00718  -0.1752   0.7669   0.2867
  -7.000   0.3783   0.01169   0.00743  -0.1754   0.7675   0.3209
  -6.500   0.4458   0.01034   0.00608  -0.1772   0.7614   0.3536
  -6.000   0.5060   0.01000   0.00572  -0.1777   0.7553   0.3845
  -5.500   0.5646   0.00966   0.00546  -0.1782   0.7532   0.4111
  -5.000   0.6276   0.00885   0.00468  -0.1792   0.7510   0.4370
  -4.500   0.6906   0.00815   0.00400  -0.1803   0.7520   0.4592
  -4.000   0.7516   0.00747   0.00338  -0.1810   0.7496   0.4816
  -3.500   0.8118   0.00691   0.00282  -0.1815   0.7440   0.5008
  -3.000   0.8692   0.00654   0.00250  -0.1814   0.7364   0.5179
  -2.500   0.9198   0.00627   0.00207  -0.1799   0.6489   0.5338
  -1.500   0.9121   0.01036   0.00507  -0.1565   0.3688   0.5563
  -1.000   0.9282   0.01216   0.00663  -0.1497   0.3028   0.5674
  -0.500   0.9535   0.01372   0.00796  -0.1446   0.2429   0.5783
  -0.000   0.9834   0.01502   0.00903  -0.1403   0.1878   0.5888
   0.500   1.0184   0.01604   0.00983  -0.1366   0.1433   0.5982
   1.000   1.0563   0.01692   0.01057  -0.1335   0.1097   0.6076
   1.500   1.0962   0.01773   0.01123  -0.1306   0.0844   0.6155
   2.000   1.1375   0.01847   0.01191  -0.1280   0.0665   0.6233
   2.500   1.1792   0.01922   0.01256  -0.1254   0.0535   0.6300
   3.000   1.2211   0.01996   0.01326  -0.1229   0.0439   0.6360
   3.500   1.2632   0.02071   0.01398  -0.1204   0.0373   0.6418
   4.000   1.3054   0.02146   0.01473  -0.1179   0.0327   0.6469
   4.500   1.3468   0.02227   0.01554  -0.1154   0.0287   0.6511
   5.000   1.3869   0.02318   0.01644  -0.1127   0.0250   0.6551
   5.500   1.4277   0.02401   0.01732  -0.1102   0.0233   0.6595
   6.000   1.4658   0.02507   0.01839  -0.1072   0.0208   0.6626
   6.500   1.5044   0.02603   0.01941  -0.1045   0.0196   0.6651
   7.000   1.5411   0.02714   0.02054  -0.1015   0.0181   0.6680
   7.500   1.5754   0.02845   0.02192  -0.0982   0.0168   0.6714
   8.000   1.6102   0.02964   0.02319  -0.0951   0.0159   0.6742
   8.500   1.6418   0.03105   0.02467  -0.0917   0.0151   0.6759
   9.000   1.6679   0.03293   0.02663  -0.0876   0.0139   0.6780
   9.500   1.6969   0.03453   0.02834  -0.0840   0.0134   0.6808
  10.000   1.7229   0.03632   0.03023  -0.0802   0.0129   0.6835
  10.500   1.7473   0.03827   0.03229  -0.0764   0.0124   0.6852
  11.000   1.7666   0.04064   0.03477  -0.0722   0.0118   0.6871
  11.500   1.7771   0.04381   0.03808  -0.0674   0.0112   0.6891
  12.000   1.7861   0.04718   0.04162  -0.0628   0.0109   0.6915
  12.500   1.7984   0.05035   0.04494  -0.0588   0.0107   0.6931
  13.000   1.8069   0.05398   0.04874  -0.0549   0.0104   0.6946
  13.500   1.8096   0.05836   0.05330  -0.0511   0.0101   0.6963
  14.000   1.8073   0.06355   0.05866  -0.0478   0.0099   0.6982
  14.500   1.7989   0.06986   0.06516  -0.0454   0.0097   0.6996
  15.000   1.7840   0.07798   0.07350  -0.0449   0.0095   0.7007
  15.500   1.7589   0.08862   0.08440  -0.0469   0.0093   0.7017
  16.000   1.7203   0.10226   0.09833  -0.0519   0.0092   0.7025
  16.500   1.6691   0.11883   0.11520  -0.0601   0.0092   0.7031
  17.000   1.6094   0.13767   0.13436  -0.0711   0.0092   0.7033
  17.500   1.5505   0.15747   0.15445  -0.0842   0.0092   0.7035
  18.000   1.4994   0.17663   0.17386  -0.0980   0.0092   0.7038
  18.500   1.4610   0.19399   0.19142  -0.1113   0.0091   0.7042
  19.000   1.4314   0.21007   0.20766  -0.1241   0.0089   0.7047
  19.500   1.4058   0.22579   0.22355  -0.1371   0.0086   0.7051
  20.000   1.3828   0.24196   0.23990  -0.1505   0.0085   0.7055
  22.000   0.8158   0.30452   0.30306  -0.1328   0.0053   0.6979
  22.500   0.8199   0.30983   0.30839  -0.1348   0.0050   0.6996
  23.000   0.8241   0.31456   0.31315  -0.1368   0.0049   0.7010
  23.500   0.8270   0.32047   0.31907  -0.1387   0.0047   0.7025
  24.000   0.8273   0.33090   0.32951  -0.1413   0.0044   0.7036
  24.500   0.8301   0.33721   0.33583  -0.1434   0.0038   0.7051
  25.000   0.8331   0.34266   0.34132  -0.1456   0.0035   0.7067
