  
       XFOIL         Version 6.99
  
 Calculated polar for: NACA 0012                                       
  
 1 1 Reynolds number fixed          Mach number fixed         
  
 xtrf =   1.000 (top)        1.000 (bottom)  
 Mach =   0.000     Re =     2.332 e 6     Ncrit =   9.000
  
   alpha    CL        CD       CDp       CM     Top_Xtr  Bot_Xtr
  ------ -------- --------- --------- -------- -------- --------
 -15.000  -1.4275   0.01924   0.01459  -0.0326   1.0000   0.0114
 -14.500  -1.3936   0.01775   0.01298  -0.0302   1.0000   0.0123
 -14.000  -1.3529   0.01670   0.01190  -0.0285   1.0000   0.0130
 -13.500  -1.3096   0.01584   0.01098  -0.0271   1.0000   0.0136
 -13.000  -1.2653   0.01510   0.01018  -0.0256   1.0000   0.0141
 -12.500  -1.2252   0.01414   0.00916  -0.0233   1.0000   0.0152
 -12.000  -1.1849   0.01343   0.00844  -0.0208   1.0000   0.0162
 -11.500  -1.1426   0.01285   0.00781  -0.0185   0.9998   0.0170
 -11.000  -1.0827   0.01206   0.00701  -0.0201   0.9979   0.0188
 -10.500  -1.0209   0.01145   0.00638  -0.0220   0.9958   0.0204
 -10.000  -0.9581   0.01078   0.00571  -0.0240   0.9941   0.0228
  -9.500  -0.8975   0.01026   0.00518  -0.0254   0.9903   0.0249
  -9.000  -0.8376   0.00969   0.00464  -0.0267   0.9848   0.0287
  -8.500  -0.7820   0.00920   0.00417  -0.0269   0.9756   0.0330
  -8.000  -0.7285   0.00876   0.00374  -0.0264   0.9640   0.0384
  -7.500  -0.6766   0.00836   0.00334  -0.0256   0.9476   0.0452
  -7.000  -0.6242   0.00799   0.00297  -0.0248   0.9278   0.0543
  -6.500  -0.5704   0.00764   0.00263  -0.0244   0.9102   0.0667
  -6.000  -0.5161   0.00727   0.00230  -0.0241   0.8940   0.0847
  -5.500  -0.4611   0.00691   0.00201  -0.0239   0.8794   0.1087
  -5.000  -0.4058   0.00656   0.00176  -0.0238   0.8653   0.1383
  -4.500  -0.3503   0.00622   0.00152  -0.0238   0.8524   0.1758
  -4.000  -0.2945   0.00591   0.00133  -0.0237   0.8393   0.2171
  -3.500  -0.2383   0.00560   0.00116  -0.0238   0.8264   0.2627
  -3.000  -0.1819   0.00532   0.00103  -0.0238   0.8131   0.3103
  -2.500  -0.1253   0.00510   0.00092  -0.0239   0.7974   0.3570
  -2.000  -0.0687   0.00491   0.00083  -0.0239   0.7777   0.4034
  -1.500  -0.0121   0.00479   0.00077  -0.0239   0.7500   0.4466
  -1.000   0.0417   0.00494   0.00074  -0.0234   0.6528   0.4906
  -0.500   0.0965   0.00511   0.00079  -0.0231   0.5795   0.5311
  -0.000   0.1518   0.00523   0.00084  -0.0230   0.5183   0.5710
   0.500   0.2073   0.00540   0.00091  -0.0228   0.4607   0.6076
   1.000   0.2627   0.00559   0.00101  -0.0227   0.4046   0.6410
   1.500   0.3181   0.00585   0.00115  -0.0225   0.3496   0.6682
   2.000   0.3734   0.00616   0.00130  -0.0223   0.2961   0.6898
   2.500   0.4285   0.00648   0.00147  -0.0221   0.2454   0.7049
   3.000   0.4832   0.00682   0.00167  -0.0219   0.1976   0.7196
   3.500   0.5371   0.00714   0.00190  -0.0215   0.1548   0.7473
   4.000   0.5880   0.00721   0.00219  -0.0204   0.1219   0.8595
   4.500   0.6359   0.00743   0.00252  -0.0184   0.0952   0.9531
   5.000   0.6916   0.00787   0.00287  -0.0183   0.0733   0.9818
   5.500   0.7546   0.00832   0.00323  -0.0199   0.0585   0.9928
   6.000   0.8215   0.00882   0.00364  -0.0225   0.0462   0.9964
   6.500   0.8879   0.00931   0.00407  -0.0250   0.0384   0.9996
   7.000   0.9378   0.00977   0.00449  -0.0238   0.0329   1.0000
   7.500   0.9842   0.01026   0.00495  -0.0219   0.0285   1.0000
   8.000   1.0318   0.01072   0.00540  -0.0202   0.0258   1.0000
   8.500   1.0801   0.01125   0.00592  -0.0188   0.0233   1.0000
   9.000   1.1285   0.01184   0.00651  -0.0175   0.0209   1.0000
   9.500   1.1774   0.01243   0.00712  -0.0163   0.0194   1.0000
  10.000   1.2254   0.01308   0.00777  -0.0151   0.0177   1.0000
  10.500   1.2725   0.01381   0.00853  -0.0138   0.0164   1.0000
  11.000   1.3195   0.01449   0.00925  -0.0124   0.0155   1.0000
  11.500   1.3640   0.01534   0.01012  -0.0108   0.0144   1.0000
  12.000   1.4066   0.01629   0.01113  -0.0089   0.0136   1.0000
  12.500   1.4492   0.01711   0.01202  -0.0071   0.0131   1.0000
  13.000   1.4891   0.01805   0.01300  -0.0050   0.0124   1.0000
  13.500   1.5222   0.01921   0.01422  -0.0018   0.0117   1.0000
  14.000   1.5461   0.02068   0.01581   0.0026   0.0111   1.0000
  14.500   1.5742   0.02195   0.01717   0.0060   0.0109   1.0000
  15.000   1.5988   0.02353   0.01884   0.0093   0.0106   1.0000
  15.500   1.6200   0.02544   0.02086   0.0125   0.0103   1.0000
  16.000   1.6373   0.02779   0.02332   0.0154   0.0100   1.0000
  16.500   1.6495   0.03077   0.02642   0.0178   0.0097   1.0000
  17.000   1.6538   0.03477   0.03057   0.0197   0.0094   1.0000
  17.500   1.6456   0.04056   0.03655   0.0204   0.0090   1.0000
  18.000   1.6222   0.04928   0.04554   0.0183   0.0088   1.0000
  18.500   1.6037   0.05842   0.05489   0.0147   0.0088   1.0000
  19.000   1.5659   0.07113   0.06786   0.0088   0.0087   1.0000
  19.500   1.4953   0.08965   0.08670  -0.0005   0.0088   1.0000
  20.000   1.3843   0.11613   0.11357  -0.0143   0.0088   1.0000
  20.500   1.3021   0.13907   0.13680  -0.0271   0.0089   1.0000
  21.000   1.2347   0.16075   0.15872  -0.0402   0.0090   1.0000
  21.500   1.1870   0.17984   0.17800  -0.0527   0.0088   1.0000
  22.000   1.1676   0.19320   0.19149  -0.0617   0.0087   1.0000
  22.500   1.1526   0.20606   0.20446  -0.0707   0.0086   1.0000
  23.000   1.1374   0.21967   0.21820  -0.0803   0.0084   1.0000
  23.500   1.1220   0.23419   0.23284  -0.0907   0.0081   1.0000
