  
       XFOIL         Version 6.99
  
 Calculated polar for: NACA 0012                                       
  
 1 1 Reynolds number fixed          Mach number fixed         
  
 xtrf =   1.000 (top)        1.000 (bottom)  
 Mach =   0.000     Re =     2.332 e 6     Ncrit =   9.000
  
   alpha    CL        CD       CDp       CM     Top_Xtr  Bot_Xtr
  ------ -------- --------- --------- -------- -------- --------
 -15.000  -1.5594   0.02222   0.01753  -0.0150   1.0000   0.0108
 -14.500  -1.5328   0.02088   0.01609  -0.0116   1.0000   0.0110
 -14.000  -1.5083   0.01948   0.01458  -0.0074   1.0000   0.0115
 -13.500  -1.4755   0.01820   0.01323  -0.0044   1.0000   0.0122
 -13.000  -1.4359   0.01721   0.01220  -0.0023   1.0000   0.0129
 -12.500  -1.3934   0.01636   0.01129  -0.0005   1.0000   0.0135
 -12.000  -1.3497   0.01550   0.01037   0.0011   1.0000   0.0140
 -11.500  -1.3061   0.01456   0.00938   0.0028   1.0000   0.0152
 -11.000  -1.2596   0.01384   0.00864   0.0041   1.0000   0.0162
 -10.500  -1.2120   0.01319   0.00794   0.0054   1.0000   0.0170
 -10.000  -1.1653   0.01245   0.00721   0.0068   1.0000   0.0189
  -9.500  -1.1171   0.01192   0.00665   0.0081   1.0000   0.0201
  -9.000  -1.0714   0.01128   0.00602   0.0099   1.0000   0.0225
  -8.500  -1.0251   0.01082   0.00554   0.0118   1.0000   0.0241
  -8.000  -0.9808   0.01028   0.00503   0.0140   1.0000   0.0276
  -7.500  -0.9349   0.00982   0.00458   0.0160   0.9999   0.0311
  -7.000  -0.8705   0.00931   0.00411   0.0139   0.9979   0.0364
  -6.500  -0.8050   0.00882   0.00368   0.0116   0.9954   0.0439
  -6.000  -0.7385   0.00835   0.00328   0.0091   0.9930   0.0536
  -5.500  -0.6763   0.00788   0.00290   0.0077   0.9865   0.0681
  -5.000  -0.6167   0.00744   0.00257   0.0068   0.9752   0.0868
  -4.500  -0.5624   0.00704   0.00226   0.0073   0.9551   0.1114
  -4.000  -0.5112   0.00666   0.00196   0.0084   0.9207   0.1442
  -3.500  -0.4596   0.00639   0.00168   0.0095   0.8644   0.1822
  -3.000  -0.4075   0.00621   0.00145   0.0104   0.7892   0.2271
  -2.500  -0.3536   0.00602   0.00127   0.0108   0.7351   0.2753
  -2.000  -0.2986   0.00580   0.00113   0.0110   0.7066   0.3257
  -1.500  -0.2429   0.00557   0.00102   0.0112   0.6796   0.3773
  -1.000  -0.1874   0.00538   0.00091   0.0113   0.6449   0.4300
  -0.500  -0.1317   0.00524   0.00084   0.0114   0.6060   0.4836
  -0.000  -0.0761   0.00515   0.00080   0.0115   0.5629   0.5385
   0.500  -0.0204   0.00510   0.00078   0.0116   0.5189   0.5927
   1.000   0.0349   0.00505   0.00078   0.0118   0.4736   0.6525
   1.500   0.0893   0.00498   0.00082   0.0122   0.4267   0.7320
   2.000   0.1452   0.00511   0.00090   0.0123   0.3789   0.7730
   2.500   0.2010   0.00529   0.00101   0.0124   0.3308   0.8017
   3.000   0.2568   0.00553   0.00114   0.0125   0.2826   0.8252
   3.500   0.3122   0.00579   0.00130   0.0127   0.2363   0.8474
   4.000   0.3674   0.00609   0.00150   0.0129   0.1922   0.8680
   4.500   0.4223   0.00644   0.00173   0.0131   0.1521   0.8882
   5.000   0.4768   0.00678   0.00199   0.0134   0.1194   0.9073
   5.500   0.5306   0.00714   0.00228   0.0139   0.0931   0.9265
   6.000   0.5837   0.00752   0.00261   0.0146   0.0727   0.9443
   6.500   0.6363   0.00789   0.00294   0.0153   0.0593   0.9611
   7.000   0.6896   0.00832   0.00331   0.0159   0.0477   0.9748
   8.000   0.8096   0.00926   0.00417   0.0138   0.0336   0.9914
   8.500   0.8739   0.00980   0.00468   0.0117   0.0288   0.9945
   9.000   0.9379   0.01031   0.00516   0.0096   0.0256   0.9961
   9.500   1.0004   0.01086   0.00572   0.0078   0.0230   0.9980
  10.000   1.0614   0.01154   0.00639   0.0062   0.0203   0.9997
  10.500   1.1066   0.01203   0.00691   0.0080   0.0192   1.0000
  11.000   1.1473   0.01268   0.00756   0.0107   0.0175   1.0000
  11.500   1.1903   0.01332   0.00824   0.0129   0.0165   1.0000
  12.000   1.2351   0.01398   0.00893   0.0146   0.0156   1.0000
  12.500   1.2791   0.01485   0.00983   0.0162   0.0144   1.0000
  13.000   1.3230   0.01574   0.01078   0.0177   0.0137   1.0000
  13.500   1.3672   0.01656   0.01167   0.0191   0.0132   1.0000
  14.000   1.4091   0.01751   0.01266   0.0207   0.0125   1.0000
  14.500   1.4463   0.01875   0.01396   0.0229   0.0117   1.0000
  15.000   1.4792   0.02013   0.01545   0.0255   0.0112   1.0000
  15.500   1.5074   0.02134   0.01675   0.0289   0.0110   1.0000
  16.000   1.5309   0.02288   0.01839   0.0322   0.0107   1.0000
  16.500   1.5508   0.02485   0.02048   0.0351   0.0104   1.0000
  17.000   1.5664   0.02748   0.02323   0.0371   0.0101   1.0000
  17.500   1.5762   0.03112   0.02700   0.0380   0.0098   1.0000
  18.000   1.5764   0.03643   0.03248   0.0372   0.0095   1.0000
  18.500   1.5610   0.04430   0.04058   0.0345   0.0092   1.0000
  19.000   1.5271   0.05545   0.05199   0.0293   0.0090   1.0000
  19.500   1.4745   0.07006   0.06690   0.0219   0.0090   1.0000
  20.000   1.4083   0.08771   0.08484   0.0129   0.0090   1.0000
  20.500   1.3297   0.10823   0.10566   0.0023   0.0092   1.0000
  21.000   1.2459   0.13082   0.12853  -0.0098   0.0093   1.0000
  21.500   1.1730   0.15301   0.15098  -0.0226   0.0094   1.0000
  22.000   1.1247   0.17166   0.16980  -0.0341   0.0093   1.0000
  22.500   1.0976   0.18667   0.18495  -0.0439   0.0090   1.0000
  23.000   1.0835   0.19916   0.19755  -0.0523   0.0089   1.0000
  23.500   1.0675   0.21284   0.21136  -0.0616   0.0087   1.0000
  24.000   1.0519   0.22737   0.22601  -0.0715   0.0084   1.0000
