  
       XFOIL         Version 6.99
  
 Calculated polar for: NACA 0012                                       
  
 1 1 Reynolds number fixed          Mach number fixed         
  
 xtrf =   1.000 (top)        1.000 (bottom)  
 Mach =   0.000     Re =     2.332 e 6     Ncrit =   9.000
  
   alpha    CL        CD       CDp       CM     Top_Xtr  Bot_Xtr
  ------ -------- --------- --------- -------- -------- --------
 -15.000  -0.7255   0.01305   0.00791  -0.1343   0.7540   0.0187
 -14.500  -0.6706   0.01232   0.00711  -0.1351   0.7550   0.0201
 -14.000  -0.6154   0.01165   0.00642  -0.1360   0.7559   0.0222
 -13.500  -0.5596   0.01112   0.00585  -0.1368   0.7567   0.0239
 -13.000  -0.5036   0.01057   0.00530  -0.1376   0.7575   0.0268
 -12.500  -0.4472   0.01011   0.00483  -0.1384   0.7583   0.0303
 -12.000  -0.3905   0.00972   0.00444  -0.1392   0.7590   0.0339
 -11.500  -0.3335   0.00934   0.00409  -0.1399   0.7597   0.0391
 -11.000  -0.2764   0.00899   0.00377  -0.1407   0.7604   0.0461
 -10.500  -0.2191   0.00866   0.00350  -0.1415   0.7612   0.0560
 -10.000  -0.1617   0.00835   0.00326  -0.1422   0.7619   0.0692
  -9.500  -0.1040   0.00809   0.00307  -0.1429   0.7627   0.0848
  -9.000  -0.0463   0.00781   0.00290  -0.1437   0.7635   0.1084
  -8.500   0.0115   0.00757   0.00277  -0.1444   0.7642   0.1356
  -8.000   0.0695   0.00736   0.00268  -0.1451   0.7651   0.1668
  -7.500   0.1275   0.00718   0.00263  -0.1458   0.7659   0.2017
  -7.000   0.1858   0.00694   0.00250  -0.1464   0.7654   0.2367
  -6.500   0.2447   0.00652   0.00215  -0.1470   0.7615   0.2735
  -6.000   0.3033   0.00624   0.00194  -0.1475   0.7584   0.3087
  -5.500   0.3612   0.00618   0.00196  -0.1479   0.7554   0.3421
  -5.000   0.4195   0.00605   0.00193  -0.1484   0.7534   0.3732
  -4.500   0.4784   0.00574   0.00171  -0.1488   0.7511   0.4028
  -4.000   0.5370   0.00549   0.00154  -0.1492   0.7471   0.4295
  -3.500   0.5951   0.00530   0.00139  -0.1494   0.7415   0.4550
  -3.000   0.6534   0.00514   0.00131  -0.1497   0.7359   0.4774
  -2.500   0.7110   0.00504   0.00125  -0.1498   0.6936   0.4993
  -2.000   0.7355   0.00683   0.00210  -0.1437   0.4573   0.5157
  -1.500   0.7755   0.00757   0.00253  -0.1405   0.3688   0.5329
  -1.000   0.8150   0.00825   0.00295  -0.1371   0.2971   0.5482
  -0.500   0.8538   0.00890   0.00339  -0.1336   0.2393   0.5633
  -0.000   0.8861   0.00954   0.00386  -0.1287   0.1896   0.5768
   0.500   0.9245   0.01023   0.00439  -0.1252   0.1480   0.5888
   1.000   0.9650   0.01093   0.00494  -0.1223   0.1141   0.5993
   1.500   1.0074   0.01159   0.00550  -0.1197   0.0882   0.6103
   2.000   1.0507   0.01224   0.00605  -0.1173   0.0692   0.6190
   2.500   1.0948   0.01287   0.00662  -0.1150   0.0560   0.6279
   3.000   1.1388   0.01352   0.00721  -0.1128   0.0460   0.6347
   3.500   1.1831   0.01417   0.00783  -0.1106   0.0383   0.6420
   4.000   1.2272   0.01483   0.00846  -0.1085   0.0331   0.6479
   4.500   1.2709   0.01550   0.00913  -0.1062   0.0288   0.6533
   5.000   1.3140   0.01624   0.00986  -0.1039   0.0252   0.6582
   5.500   1.3568   0.01697   0.01058  -0.1017   0.0229   0.6625
   6.000   1.3986   0.01776   0.01140  -0.0992   0.0207   0.6662
   6.500   1.4397   0.01859   0.01223  -0.0967   0.0189   0.6695
   7.000   1.4796   0.01951   0.01318  -0.0941   0.0173   0.6728
   7.500   1.5189   0.02041   0.01410  -0.0914   0.0163   0.6759
   8.000   1.5564   0.02145   0.01517  -0.0885   0.0150   0.6781
   8.500   1.5924   0.02257   0.01636  -0.0855   0.0141   0.6802
   9.000   1.6281   0.02365   0.01748  -0.0825   0.0134   0.6826
   9.500   1.6618   0.02488   0.01876  -0.0793   0.0126   0.6851
  10.000   1.6904   0.02647   0.02042  -0.0755   0.0117   0.6870
  10.500   1.7204   0.02790   0.02194  -0.0721   0.0113   0.6886
  11.000   1.7485   0.02944   0.02357  -0.0685   0.0110   0.6904
  11.500   1.7742   0.03115   0.02536  -0.0648   0.0106   0.6926
  12.000   1.7967   0.03310   0.02739  -0.0608   0.0101   0.6944
  12.500   1.8146   0.03543   0.02982  -0.0566   0.0097   0.6959
  13.000   1.8233   0.03855   0.03310  -0.0517   0.0091   0.6974
  13.500   1.8405   0.04108   0.03574  -0.0480   0.0090   0.6990
  14.000   1.8529   0.04405   0.03884  -0.0441   0.0088   0.7006
  14.500   1.8611   0.04754   0.04246  -0.0403   0.0086   0.7020
  15.000   1.8659   0.05156   0.04663  -0.0369   0.0084   0.7033
  15.500   1.8659   0.05626   0.05150  -0.0338   0.0082   0.7044
  16.000   1.8599   0.06207   0.05748  -0.0315   0.0081   0.7055
  16.500   1.8460   0.06975   0.06535  -0.0310   0.0079   0.7066
  17.000   1.8226   0.07966   0.07549  -0.0327   0.0078   0.7076
  17.500   1.7856   0.09249   0.08858  -0.0371   0.0077   0.7082
  18.000   1.7297   0.10898   0.10537  -0.0446   0.0077   0.7085
  18.500   1.6563   0.12944   0.12617  -0.0559   0.0077   0.7085
  19.000   1.5698   0.15382   0.15090  -0.0717   0.0078   0.7083
  19.500   1.4827   0.18042   0.17783  -0.0911   0.0079   0.7080
  20.000   1.4262   0.20227   0.19991  -0.1081   0.0078   0.7080
  20.500   1.3897   0.22061   0.21842  -0.1228   0.0077   0.7082
  21.000   1.3707   0.23485   0.23277  -0.1345   0.0075   0.7085
  21.500   1.3572   0.24800   0.24602  -0.1454   0.0072   0.7090
  22.000   1.3444   0.26176   0.25990  -0.1569   0.0069   0.7095
  22.500   1.2546   0.32905   0.32742  -0.2011   0.0038   0.7071
  23.500   0.7979   0.30489   0.30355  -0.1255   0.0038   0.7040
  24.000   0.8026   0.30941   0.30809  -0.1276   0.0037   0.7051
  25.000   1.3197   0.36550   0.36392  -0.2296   0.0028   0.7112
