  
       XFOIL         Version 6.99
  
 Calculated polar for: NACA 0012                                       
  
 1 1 Reynolds number fixed          Mach number fixed         
  
 xtrf =   1.000 (top)        1.000 (bottom)  
 Mach =   0.000     Re =     2.332 e 6     Ncrit =   9.000
  
   alpha    CL        CD       CDp       CM     Top_Xtr  Bot_Xtr
  ------ -------- --------- --------- -------- -------- --------
 -15.000  -1.1955   0.01594   0.01093  -0.0656   0.8342   0.0136
 -14.500  -1.1477   0.01508   0.01000  -0.0652   0.8277   0.0145
 -14.000  -1.0981   0.01435   0.00919  -0.0650   0.8217   0.0152
 -13.500  -1.0484   0.01352   0.00828  -0.0648   0.8193   0.0161
 -13.000  -0.9975   0.01276   0.00749  -0.0647   0.8170   0.0175
 -12.500  -0.9449   0.01218   0.00686  -0.0647   0.8150   0.0185
 -12.000  -0.8926   0.01150   0.00615  -0.0647   0.8132   0.0204
 -11.500  -0.8388   0.01099   0.00561  -0.0648   0.8117   0.0221
 -11.000  -0.7850   0.01042   0.00502  -0.0649   0.8103   0.0247
 -10.500  -0.7301   0.00999   0.00456  -0.0651   0.8090   0.0269
 -10.000  -0.6753   0.00950   0.00408  -0.0653   0.8079   0.0310
  -9.500  -0.6199   0.00906   0.00365  -0.0655   0.8069   0.0358
  -9.000  -0.5641   0.00866   0.00327  -0.0658   0.8060   0.0419
  -8.500  -0.5079   0.00828   0.00292  -0.0661   0.8053   0.0500
  -8.000  -0.4514   0.00792   0.00261  -0.0664   0.8048   0.0604
  -7.500  -0.3948   0.00754   0.00231  -0.0667   0.8044   0.0763
  -7.000  -0.3379   0.00719   0.00205  -0.0671   0.8042   0.0961
  -6.500  -0.2811   0.00681   0.00179  -0.0674   0.8019   0.1219
  -6.000  -0.2242   0.00643   0.00156  -0.0677   0.7985   0.1557
  -5.500  -0.1670   0.00611   0.00137  -0.0680   0.7956   0.1930
  -5.000  -0.1097   0.00582   0.00121  -0.0684   0.7922   0.2332
  -4.500  -0.0522   0.00558   0.00110  -0.0687   0.7879   0.2759
  -4.000   0.0057   0.00532   0.00099  -0.0691   0.7855   0.3183
  -3.500   0.0637   0.00510   0.00091  -0.0695   0.7817   0.3590
  -3.000   0.1216   0.00492   0.00085  -0.0698   0.7761   0.3982
  -2.500   0.1796   0.00478   0.00081  -0.0700   0.7690   0.4350
  -2.000   0.2376   0.00464   0.00077  -0.0703   0.7593   0.4706
  -1.500   0.2953   0.00455   0.00076  -0.0705   0.7413   0.5030
  -0.500   0.3961   0.00569   0.00112  -0.0682   0.4790   0.5586
  -0.000   0.4490   0.00607   0.00129  -0.0676   0.4060   0.5827
   0.500   0.5020   0.00644   0.00149  -0.0670   0.3422   0.6046
   1.000   0.5548   0.00685   0.00171  -0.0663   0.2831   0.6240
   1.500   0.6076   0.00728   0.00196  -0.0656   0.2285   0.6400
   2.000   0.6601   0.00774   0.00224  -0.0649   0.1797   0.6535
   2.500   0.7126   0.00823   0.00255  -0.0642   0.1383   0.6645
   3.000   0.7652   0.00871   0.00289  -0.0634   0.1062   0.6740
   3.500   0.8178   0.00918   0.00325  -0.0627   0.0823   0.6810
   4.000   0.8700   0.00969   0.00364  -0.0619   0.0635   0.6872
   4.500   0.9224   0.01014   0.00403  -0.0612   0.0520   0.6922
   5.000   0.9743   0.01060   0.00444  -0.0603   0.0431   0.6973
   5.500   1.0258   0.01108   0.00487  -0.0594   0.0362   0.7017
   6.000   1.0766   0.01152   0.00532  -0.0585   0.0313   0.7062
   6.500   1.1268   0.01203   0.00582  -0.0574   0.0274   0.7103
   7.000   1.1759   0.01257   0.00637  -0.0561   0.0238   0.7158
   7.500   1.2252   0.01306   0.00689  -0.0549   0.0220   0.7206
   8.000   1.2723   0.01372   0.00758  -0.0534   0.0196   0.7273
   9.000   1.3623   0.01448   0.00898  -0.0495   0.0167   0.9999
   9.500   1.4066   0.01520   0.00975  -0.0475   0.0158   0.9999
  10.000   1.4489   0.01596   0.01053  -0.0453   0.0149   0.9999
  10.500   1.4853   0.01687   0.01147  -0.0420   0.0138   0.9999
  11.000   1.5197   0.01788   0.01255  -0.0386   0.0131   0.9999
  11.500   1.5548   0.01881   0.01355  -0.0354   0.0127   0.9999
  12.000   1.5876   0.01990   0.01469  -0.0321   0.0121   0.9999
  12.500   1.6171   0.02120   0.01605  -0.0286   0.0114   0.9999
  13.000   1.6386   0.02308   0.01805  -0.0243   0.0107   0.9999
  13.500   1.6656   0.02459   0.01964  -0.0210   0.0105   0.9999
  14.000   1.6896   0.02636   0.02151  -0.0176   0.0103   0.9999
  14.500   1.7099   0.02844   0.02370  -0.0142   0.0100   0.9999
  15.000   1.7266   0.03086   0.02624  -0.0108   0.0097   0.9999
  15.500   1.7391   0.03374   0.02922  -0.0075   0.0094   0.9999
  16.000   1.7448   0.03732   0.03294  -0.0044   0.0091   0.9999
  16.500   1.7414   0.04203   0.03781  -0.0017   0.0088   0.9999
  17.000   1.7249   0.04878   0.04479  -0.0002   0.0085   0.9999
  17.500   1.7059   0.05728   0.05352  -0.0015   0.0084   0.9999
  18.000   1.6841   0.06731   0.06378  -0.0050   0.0083   0.9999
  18.500   1.6429   0.08095   0.07769  -0.0110   0.0083   0.9999
  19.000   1.5685   0.10061   0.09770  -0.0206   0.0083   0.9999
  19.500   1.4574   0.12799   0.12548  -0.0355   0.0084   0.9999
  20.000   1.3666   0.15357   0.15138  -0.0510   0.0085   0.9999
  20.500   1.3075   0.17453   0.17257  -0.0649   0.0084   0.9999
  21.000   1.2690   0.19204   0.19026  -0.0771   0.0084   0.9999
  21.500   1.2498   0.20573   0.20407  -0.0870   0.0083   0.9999
  22.000   1.2320   0.21976   0.21824  -0.0974   0.0082   0.9999
  22.500   1.2186   0.23320   0.23180  -0.1075   0.0080   0.9999
  23.000   1.2059   0.24707   0.24578  -0.1179   0.0077   0.9999
  24.000   1.1238   0.32051   0.31945  -0.1608   0.0047   0.9999
  24.500   1.1389   0.33035   0.32930  -0.1670   0.0040   0.9999
  25.000   1.1533   0.33551   0.33446  -0.1718   0.0036   0.9999
