  
       XFOIL         Version 6.99
  
 Calculated polar for: NACA 0012                                       
  
 1 1 Reynolds number fixed          Mach number fixed         
  
 xtrf =   1.000 (top)        1.000 (bottom)  
 Mach =   0.000     Re =     1.521 e 6     Ncrit =   9.000
  
   alpha    CL        CD       CDp       CM     Top_Xtr  Bot_Xtr
  ------ -------- --------- --------- -------- -------- --------
 -15.000  -1.3868   0.02223   0.01750  -0.0373   1.0000   0.0135
 -14.500  -1.3559   0.02095   0.01611  -0.0346   1.0000   0.0139
 -14.000  -1.3237   0.01941   0.01444  -0.0321   1.0000   0.0146
 -13.500  -1.2875   0.01805   0.01300  -0.0299   1.0000   0.0155
 -13.000  -1.2463   0.01705   0.01194  -0.0282   1.0000   0.0163
 -12.500  -1.2037   0.01620   0.01101  -0.0265   1.0000   0.0170
 -12.000  -1.1657   0.01512   0.00985  -0.0239   1.0000   0.0183
 -11.500  -1.1264   0.01437   0.00907  -0.0212   1.0000   0.0196
 -11.000  -1.0878   0.01378   0.00843  -0.0182   1.0000   0.0206
 -10.500  -1.0373   0.01288   0.00749  -0.0179   0.9987   0.0228
 -10.000  -0.9741   0.01225   0.00683  -0.0200   0.9963   0.0246
  -9.500  -0.9105   0.01148   0.00606  -0.0223   0.9942   0.0282
  -9.000  -0.8486   0.01082   0.00540  -0.0241   0.9907   0.0320
  -8.500  -0.7850   0.01022   0.00482  -0.0262   0.9869   0.0369
  -8.000  -0.7214   0.00966   0.00428  -0.0282   0.9829   0.0438
  -7.500  -0.6658   0.00915   0.00382  -0.0283   0.9731   0.0525
  -7.000  -0.6123   0.00869   0.00340  -0.0278   0.9599   0.0639
  -6.500  -0.5610   0.00824   0.00299  -0.0268   0.9425   0.0810
  -6.000  -0.5084   0.00781   0.00262  -0.0261   0.9263   0.1031
  -5.500  -0.4549   0.00739   0.00229  -0.0256   0.9111   0.1332
  -5.000  -0.4007   0.00699   0.00200  -0.0253   0.8968   0.1702
  -4.500  -0.3461   0.00659   0.00174  -0.0250   0.8831   0.2147
  -4.000  -0.2910   0.00624   0.00153  -0.0248   0.8703   0.2627
  -3.000  -0.1795   0.00565   0.00122  -0.0246   0.8437   0.3616
  -2.500  -0.1234   0.00541   0.00111  -0.0246   0.8289   0.4111
  -2.000  -0.0670   0.00521   0.00102  -0.0245   0.8128   0.4577
  -1.500  -0.0107   0.00506   0.00096  -0.0244   0.7931   0.5032
  -1.000   0.0456   0.00495   0.00092  -0.0243   0.7667   0.5466
  -0.500   0.1001   0.00500   0.00088  -0.0238   0.6927   0.5862
  -0.000   0.1530   0.00532   0.00097  -0.0231   0.6016   0.6231
   0.500   0.2076   0.00556   0.00107  -0.0227   0.5342   0.6554
   1.000   0.2627   0.00583   0.00118  -0.0225   0.4728   0.6809
   2.000   0.3723   0.00640   0.00144  -0.0219   0.3551   0.7181
   2.500   0.4261   0.00669   0.00161  -0.0215   0.2986   0.7435
   3.000   0.4777   0.00687   0.00184  -0.0206   0.2456   0.8159
   3.500   0.5247   0.00704   0.00216  -0.0183   0.1973   0.9329
   4.000   0.5807   0.00752   0.00250  -0.0183   0.1524   0.9734
   4.500   0.6449   0.00808   0.00286  -0.0202   0.1142   0.9884
   5.000   0.7126   0.00865   0.00327  -0.0229   0.0847   0.9949
   5.500   0.7818   0.00922   0.00371  -0.0261   0.0641   0.9989
   6.000   0.8356   0.00970   0.00412  -0.0258   0.0524   1.0000
   6.500   0.8814   0.01018   0.00456  -0.0237   0.0442   1.0000
   7.000   0.9276   0.01070   0.00504  -0.0218   0.0379   1.0000
   7.500   0.9741   0.01125   0.00557  -0.0200   0.0329   1.0000
   8.000   1.0211   0.01188   0.00617  -0.0183   0.0289   1.0000
   8.500   1.0696   0.01243   0.00675  -0.0170   0.0264   1.0000
   9.000   1.1167   0.01316   0.00749  -0.0155   0.0237   1.0000
   9.500   1.1646   0.01381   0.00817  -0.0142   0.0219   1.0000
  10.000   1.2097   0.01472   0.00911  -0.0126   0.0200   1.0000
  10.500   1.2564   0.01542   0.00986  -0.0112   0.0188   1.0000
  11.000   1.2997   0.01636   0.01083  -0.0094   0.0174   1.0000
  11.500   1.3408   0.01742   0.01198  -0.0073   0.0164   1.0000
  12.000   1.3818   0.01836   0.01300  -0.0053   0.0156   1.0000
  12.500   1.4193   0.01945   0.01416  -0.0028   0.0149   1.0000
  13.000   1.4439   0.02101   0.01582   0.0015   0.0140   1.0000
  13.500   1.4698   0.02246   0.01739   0.0053   0.0135   1.0000
  14.000   1.4960   0.02395   0.01900   0.0086   0.0131   1.0000
  14.500   1.5177   0.02585   0.02102   0.0119   0.0126   1.0000
  15.000   1.5353   0.02821   0.02350   0.0148   0.0122   1.0000
  15.500   1.5463   0.03133   0.02676   0.0174   0.0118   1.0000
  16.000   1.5434   0.03610   0.03172   0.0193   0.0114   1.0000
  16.500   1.5284   0.04296   0.03883   0.0193   0.0111   1.0000
  17.000   1.5226   0.04987   0.04595   0.0174   0.0110   1.0000
  17.500   1.5033   0.05944   0.05577   0.0134   0.0109   1.0000
  18.000   1.4658   0.07249   0.06910   0.0071   0.0108   1.0000
  18.500   1.4070   0.08953   0.08643  -0.0015   0.0108   1.0000
  19.000   1.3348   0.10951   0.10671  -0.0117   0.0109   1.0000
  19.500   1.2691   0.12935   0.12681  -0.0223   0.0109   1.0000
  20.000   1.2219   0.14664   0.14431  -0.0321   0.0109   1.0000
  20.500   1.1854   0.16257   0.16042  -0.0417   0.0108   1.0000
  21.000   1.1590   0.17720   0.17521  -0.0510   0.0107   1.0000
  21.500   1.1322   0.19277   0.19095  -0.0613   0.0105   1.0000
  22.000   1.0975   0.21181   0.21019  -0.0741   0.0102   1.0000
  23.500   0.6364   0.24875   0.24754  -0.0624   0.0072   1.0000
  24.000   0.6444   0.25332   0.25213  -0.0648   0.0070   1.0000
  24.500   0.6527   0.25743   0.25624  -0.0671   0.0068   1.0000
