  
       XFOIL         Version 6.99
  
 Calculated polar for: NACA 0012                                       
  
 1 1 Reynolds number fixed          Mach number fixed         
  
 xtrf =   1.000 (top)        1.000 (bottom)  
 Mach =   0.000     Re =     1.521 e 6     Ncrit =   9.000
  
   alpha    CL        CD       CDp       CM     Top_Xtr  Bot_Xtr
  ------ -------- --------- --------- -------- -------- --------
 -15.000  -1.4993   0.02642   0.02171  -0.0207   1.0000   0.0125
 -14.500  -1.4795   0.02435   0.01951  -0.0177   1.0000   0.0129
 -14.000  -1.4553   0.02273   0.01776  -0.0144   1.0000   0.0134
 -13.500  -1.4265   0.02149   0.01642  -0.0111   1.0000   0.0137
 -13.000  -1.4053   0.01969   0.01449  -0.0065   1.0000   0.0146
 -12.500  -1.3685   0.01852   0.01325  -0.0041   1.0000   0.0154
 -12.000  -1.3277   0.01754   0.01219  -0.0021   1.0000   0.0162
 -11.500  -1.2849   0.01663   0.01120  -0.0003   1.0000   0.0169
 -11.000  -1.2435   0.01550   0.01002   0.0017   1.0000   0.0184
 -10.500  -1.1975   0.01476   0.00924   0.0031   1.0000   0.0197
 -10.000  -1.1522   0.01391   0.00833   0.0047   1.0000   0.0213
  -9.500  -1.1056   0.01319   0.00760   0.0062   1.0000   0.0231
  -9.000  -1.0593   0.01251   0.00688   0.0078   1.0000   0.0252
  -8.500  -1.0134   0.01192   0.00629   0.0096   1.0000   0.0279
  -8.000  -0.9688   0.01131   0.00568   0.0117   1.0000   0.0314
  -7.500  -0.9240   0.01079   0.00516   0.0139   1.0000   0.0353
  -7.000  -0.8797   0.01031   0.00469   0.0162   1.0000   0.0404
  -6.500  -0.8308   0.00981   0.00424   0.0175   0.9995   0.0477
  -6.000  -0.7638   0.00924   0.00376   0.0148   0.9967   0.0604
  -5.500  -0.6947   0.00870   0.00333   0.0117   0.9939   0.0780
  -5.000  -0.6290   0.00815   0.00293   0.0094   0.9887   0.1028
  -4.500  -0.5614   0.00760   0.00255   0.0067   0.9827   0.1375
  -4.000  -0.5042   0.00708   0.00222   0.0064   0.9666   0.1799
  -3.500  -0.4510   0.00663   0.00193   0.0071   0.9398   0.2275
  -3.000  -0.3999   0.00628   0.00167   0.0083   0.8947   0.2771
  -2.500  -0.3487   0.00606   0.00144   0.0095   0.8282   0.3304
  -2.000  -0.2961   0.00592   0.00127   0.0103   0.7636   0.3848
  -1.500  -0.2419   0.00576   0.00115   0.0108   0.7227   0.4406
  -1.000  -0.1869   0.00557   0.00106   0.0110   0.6948   0.4967
  -0.500  -0.1317   0.00539   0.00099   0.0113   0.6617   0.5542
  -0.000  -0.0766   0.00525   0.00093   0.0116   0.6231   0.6128
   0.500  -0.0223   0.00512   0.00090   0.0120   0.5793   0.6799
   1.000   0.0319   0.00506   0.00094   0.0125   0.5338   0.7531
   1.500   0.0874   0.00517   0.00100   0.0128   0.4858   0.7901
   2.000   0.1428   0.00532   0.00108   0.0131   0.4370   0.8187
   2.500   0.1983   0.00553   0.00119   0.0133   0.3868   0.8425
   3.000   0.2534   0.00578   0.00133   0.0136   0.3356   0.8646
   3.500   0.3081   0.00608   0.00151   0.0139   0.2848   0.8848
   4.000   0.3624   0.00644   0.00172   0.0144   0.2350   0.9043
   4.500   0.4160   0.00683   0.00198   0.0149   0.1884   0.9228
   5.500   0.5210   0.00769   0.00259   0.0164   0.1149   0.9568
   6.000   0.5740   0.00816   0.00296   0.0171   0.0890   0.9712
   6.500   0.6308   0.00865   0.00336   0.0169   0.0696   0.9822
   7.000   0.6960   0.00921   0.00382   0.0146   0.0543   0.9871
   7.500   0.7637   0.00975   0.00431   0.0118   0.0447   0.9913
   8.000   0.8296   0.01032   0.00485   0.0093   0.0376   0.9946
   8.500   0.8945   0.01091   0.00541   0.0070   0.0323   0.9967
   9.000   0.9578   0.01157   0.00606   0.0049   0.0282   0.9990
   9.500   1.0096   0.01217   0.00666   0.0053   0.0254   1.0000
  10.000   1.0491   0.01278   0.00731   0.0083   0.0234   1.0000
  10.500   1.0900   0.01342   0.00797   0.0109   0.0217   1.0000
  11.000   1.1307   0.01424   0.00884   0.0135   0.0200   1.0000
  11.500   1.1747   0.01492   0.00957   0.0153   0.0188   1.0000
  12.000   1.2166   0.01593   0.01061   0.0173   0.0173   1.0000
  12.500   1.2592   0.01690   0.01167   0.0190   0.0165   1.0000
  13.000   1.3017   0.01784   0.01269   0.0206   0.0157   1.0000
  13.500   1.3411   0.01896   0.01388   0.0225   0.0149   1.0000
  14.000   1.3700   0.02077   0.01582   0.0256   0.0139   1.0000
  14.500   1.4025   0.02192   0.01707   0.0283   0.0136   1.0000
  15.000   1.4269   0.02341   0.01868   0.0318   0.0131   1.0000
  15.500   1.4471   0.02538   0.02077   0.0348   0.0127   1.0000
  16.000   1.4626   0.02801   0.02353   0.0370   0.0123   1.0000
  16.500   1.4700   0.03192   0.02760   0.0378   0.0119   1.0000
  17.000   1.4616   0.03844   0.03434   0.0364   0.0115   1.0000
  17.500   1.4386   0.04779   0.04397   0.0324   0.0113   1.0000
  18.000   1.4180   0.05760   0.05401   0.0276   0.0112   1.0000
  18.500   1.3777   0.07078   0.06746   0.0209   0.0112   1.0000
  19.000   1.3172   0.08779   0.08476   0.0122   0.0112   1.0000
  19.500   1.2502   0.10670   0.10394   0.0025   0.0112   1.0000
  20.000   1.1935   0.12461   0.12208  -0.0069   0.0112   1.0000
  20.500   1.1501   0.14088   0.13854  -0.0158   0.0112   1.0000
  21.000   1.1168   0.15600   0.15383  -0.0245   0.0111   1.0000
  21.500   1.0886   0.17072   0.16871  -0.0335   0.0110   1.0000
  22.000   1.0634   0.18571   0.18386  -0.0429   0.0108   1.0000
  23.000   0.5818   0.22374   0.22248  -0.0387   0.0091   1.0000
  23.500   0.5848   0.23098   0.22972  -0.0415   0.0089   1.0000
  24.000   0.5876   0.23894   0.23769  -0.0447   0.0075   1.0000
  24.500   0.5961   0.24349   0.24225  -0.0473   0.0072   1.0000
  25.000   0.6050   0.24764   0.24642  -0.0498   0.0070   1.0000
