  
       XFOIL         Version 6.99
  
 Calculated polar for: NACA 0012                                       
  
 1 1 Reynolds number fixed          Mach number fixed         
  
 xtrf =   1.000 (top)        1.000 (bottom)  
 Mach =   0.000     Re =     1.521 e 6     Ncrit =   9.000
  
   alpha    CL        CD       CDp       CM     Top_Xtr  Bot_Xtr
  ------ -------- --------- --------- -------- -------- --------
 -15.000  -1.5334   0.02823   0.02352  -0.0151   1.0000   0.0122
 -14.500  -1.5160   0.02586   0.02103  -0.0122   1.0000   0.0126
 -14.000  -1.4944   0.02396   0.01900  -0.0089   1.0000   0.0131
 -13.500  -1.4685   0.02244   0.01737  -0.0056   1.0000   0.0135
 -13.000  -1.4428   0.02099   0.01580  -0.0017   1.0000   0.0140
 -12.500  -1.4183   0.01945   0.01415   0.0026   1.0000   0.0149
 -12.000  -1.3810   0.01836   0.01300   0.0051   1.0000   0.0157
 -11.500  -1.3401   0.01742   0.01198   0.0072   1.0000   0.0164
 -11.000  -1.2992   0.01635   0.01083   0.0093   1.0000   0.0174
 -10.500  -1.2559   0.01541   0.00986   0.0111   1.0000   0.0188
 -10.000  -1.2094   0.01472   0.00911   0.0125   1.0000   0.0200
  -9.500  -1.1643   0.01381   0.00817   0.0142   1.0000   0.0219
  -9.000  -1.1165   0.01316   0.00749   0.0155   1.0000   0.0237
  -8.500  -1.0695   0.01243   0.00674   0.0170   1.0000   0.0263
  -8.000  -1.0210   0.01188   0.00618   0.0183   1.0000   0.0289
  -7.500  -0.9742   0.01125   0.00557   0.0200   1.0000   0.0329
  -7.000  -0.9278   0.01070   0.00504   0.0218   1.0000   0.0379
  -6.500  -0.8816   0.01019   0.00456   0.0238   1.0000   0.0442
  -6.000  -0.8359   0.00970   0.00413   0.0258   1.0000   0.0524
  -5.500  -0.7817   0.00922   0.00371   0.0261   0.9989   0.0642
  -5.000  -0.7125   0.00865   0.00328   0.0229   0.9949   0.0848
  -4.500  -0.6448   0.00808   0.00287   0.0202   0.9884   0.1138
  -4.000  -0.5807   0.00752   0.00250   0.0182   0.9734   0.1524
  -3.500  -0.5246   0.00704   0.00216   0.0183   0.9328   0.1973
  -3.000  -0.4777   0.00687   0.00184   0.0206   0.8152   0.2454
  -2.500  -0.4260   0.00669   0.00161   0.0215   0.7436   0.2985
  -2.000  -0.3722   0.00641   0.00144   0.0219   0.7181   0.3547
  -1.500  -0.3176   0.00613   0.00130   0.0222   0.7005   0.4128
  -1.000  -0.2627   0.00583   0.00118   0.0225   0.6810   0.4727
  -0.500  -0.2077   0.00556   0.00107   0.0227   0.6551   0.5349
  -0.000  -0.1530   0.00532   0.00097   0.0231   0.6233   0.6015
   0.500  -0.1001   0.00500   0.00088   0.0238   0.5863   0.6926
   1.000  -0.0456   0.00495   0.00092   0.0243   0.5466   0.7667
   1.500   0.0107   0.00506   0.00096   0.0244   0.5026   0.7930
   2.000   0.0670   0.00521   0.00102   0.0245   0.4578   0.8127
   2.500   0.1233   0.00541   0.00111   0.0246   0.4107   0.8288
   3.000   0.1795   0.00565   0.00122   0.0246   0.3622   0.8437
   4.000   0.2910   0.00624   0.00153   0.0248   0.2630   0.8703
   4.500   0.3461   0.00659   0.00174   0.0250   0.2151   0.8832
   5.000   0.4007   0.00699   0.00200   0.0253   0.1703   0.8968
   5.500   0.4550   0.00739   0.00229   0.0256   0.1333   0.9110
   6.000   0.5084   0.00782   0.00262   0.0261   0.1029   0.9263
   6.500   0.5611   0.00824   0.00299   0.0268   0.0810   0.9424
   7.000   0.6124   0.00869   0.00340   0.0278   0.0639   0.9599
   7.500   0.6659   0.00915   0.00382   0.0283   0.0525   0.9731
   8.000   0.7215   0.00966   0.00428   0.0281   0.0438   0.9829
   8.500   0.7851   0.01022   0.00482   0.0261   0.0369   0.9870
   9.000   0.8487   0.01082   0.00540   0.0241   0.0320   0.9907
   9.500   0.9107   0.01148   0.00606   0.0223   0.0282   0.9942
  10.000   0.9743   0.01225   0.00683   0.0200   0.0246   0.9963
  10.500   1.0375   0.01288   0.00749   0.0178   0.0228   0.9987
  11.000   1.0876   0.01378   0.00842   0.0182   0.0206   1.0000
  11.500   1.1262   0.01436   0.00906   0.0212   0.0196   1.0000
  12.000   1.1657   0.01512   0.00985   0.0239   0.0183   1.0000
  12.500   1.2039   0.01620   0.01100   0.0264   0.0170   1.0000
  13.000   1.2465   0.01705   0.01193   0.0282   0.0163   1.0000
  13.500   1.2878   0.01805   0.01300   0.0299   0.0155   1.0000
  14.000   1.3240   0.01943   0.01446   0.0320   0.0146   1.0000
  14.500   1.3564   0.02096   0.01612   0.0345   0.0139   1.0000
  15.000   1.3874   0.02225   0.01752   0.0372   0.0135   1.0000
  15.500   1.4097   0.02389   0.01927   0.0406   0.0130   1.0000
  16.000   1.4277   0.02612   0.02163   0.0432   0.0126   1.0000
  16.500   1.4390   0.02942   0.02508   0.0444   0.0122   1.0000
  17.000   1.4380   0.03500   0.03086   0.0431   0.0118   1.0000
  17.500   1.4148   0.04418   0.04032   0.0390   0.0115   1.0000
  18.000   1.3988   0.05318   0.04955   0.0345   0.0114   1.0000
  18.500   1.3653   0.06511   0.06174   0.0284   0.0113   1.0000
  19.000   1.3106   0.08078   0.07768   0.0203   0.0113   1.0000
  19.500   1.2449   0.09908   0.09625   0.0109   0.0114   1.0000
  20.000   1.1845   0.11733   0.11475   0.0015   0.0114   1.0000
  20.500   1.1384   0.13380   0.13141  -0.0073   0.0113   1.0000
  21.000   1.1019   0.14916   0.14694  -0.0160   0.0113   1.0000
  21.500   1.0749   0.16329   0.16123  -0.0243   0.0112   1.0000
  22.000   1.0468   0.17856   0.17666  -0.0337   0.0110   1.0000
  22.500   1.0158   0.19576   0.19405  -0.0445   0.0107   1.0000
  24.000   0.5680   0.23405   0.23279  -0.0378   0.0078   1.0000
  24.500   0.5767   0.23862   0.23737  -0.0404   0.0074   1.0000
  25.000   0.5858   0.24282   0.24158  -0.0429   0.0072   1.0000
