  
       XFOIL         Version 6.99
  
 Calculated polar for: NACA 0012                                       
  
 1 1 Reynolds number fixed          Mach number fixed         
  
 xtrf =   1.000 (top)        1.000 (bottom)  
 Mach =   0.000     Re =     2.332 e 6     Ncrit =   9.000
  
   alpha    CL        CD       CDp       CM     Top_Xtr  Bot_Xtr
  ------ -------- --------- --------- -------- -------- --------
 -15.000  -1.7487   0.03333   0.02874   0.0147   0.9999   0.0095
 -14.500  -1.7341   0.03068   0.02597   0.0182   0.9999   0.0097
 -14.000  -1.7161   0.02840   0.02358   0.0217   0.9999   0.0100
 -13.500  -1.6938   0.02646   0.02154   0.0251   0.9999   0.0102
 -13.000  -1.6726   0.02449   0.01945   0.0289   0.9999   0.0105
 -12.500  -1.6504   0.02262   0.01748   0.0330   0.9999   0.0112
 -12.000  -1.6219   0.02121   0.01602   0.0365   0.9999   0.0118
 -11.500  -1.5904   0.02001   0.01474   0.0398   0.9999   0.0123
 -11.000  -1.5565   0.01896   0.01363   0.0430   0.9999   0.0127
 -10.500  -1.5258   0.01799   0.01243   0.0470   0.9017   0.0134
 -10.000  -1.4902   0.01732   0.01133   0.0502   0.7332   0.0144
  -9.500  -1.4514   0.01654   0.01048   0.0530   0.7263   0.0152
  -9.000  -1.4123   0.01589   0.00976   0.0559   0.7211   0.0158
  -8.500  -1.3719   0.01507   0.00891   0.0586   0.7173   0.0176
  -8.000  -1.3267   0.01448   0.00826   0.0605   0.7129   0.0188
  -7.500  -1.2812   0.01382   0.00757   0.0624   0.7092   0.0207
  -7.000  -1.2337   0.01327   0.00700   0.0639   0.7056   0.0226
  -6.500  -1.1860   0.01272   0.00643   0.0654   0.7017   0.0256
  -6.000  -1.1367   0.01219   0.00591   0.0667   0.6980   0.0286
  -5.500  -1.0868   0.01170   0.00543   0.0679   0.6938   0.0323
  -5.000  -1.0365   0.01118   0.00495   0.0690   0.6900   0.0381
  -4.000  -0.9345   0.01018   0.00405   0.0711   0.6805   0.0567
  -3.500  -0.8828   0.00969   0.00365   0.0720   0.6741   0.0706
  -3.000  -0.8312   0.00920   0.00326   0.0729   0.6670   0.0909
  -2.500  -0.7794   0.00870   0.00290   0.0738   0.6579   0.1187
  -2.000  -0.7275   0.00823   0.00257   0.0747   0.6476   0.1538
  -1.500  -0.6760   0.00773   0.00226   0.0756   0.6351   0.1992
  -1.000  -0.6242   0.00728   0.00197   0.0765   0.6199   0.2504
  -0.500  -0.5726   0.00682   0.00172   0.0774   0.6028   0.3094
  -0.000  -0.5205   0.00640   0.00149   0.0782   0.5833   0.3721
   0.500  -0.4684   0.00599   0.00129   0.0790   0.5612   0.4424
   1.000  -0.4167   0.00556   0.00110   0.0799   0.5361   0.5254
   1.500  -0.3720   0.00456   0.00078   0.0821   0.5119   0.7305
   2.000  -0.3141   0.00465   0.00081   0.0819   0.4816   0.7530
   2.500  -0.2563   0.00475   0.00083   0.0817   0.4492   0.7629
   3.000  -0.1979   0.00491   0.00087   0.0813   0.4150   0.7688
   3.500  -0.1397   0.00507   0.00092   0.0809   0.3785   0.7733
   4.000  -0.0818   0.00523   0.00098   0.0806   0.3397   0.7778
   5.000   0.0341   0.00570   0.00118   0.0798   0.2582   0.7835
   6.000   0.1495   0.00632   0.00150   0.0790   0.1784   0.7870
   6.500   0.2066   0.00663   0.00168   0.0786   0.1425   0.7910
   7.000   0.2635   0.00696   0.00191   0.0783   0.1116   0.7942
   7.500   0.3207   0.00730   0.00215   0.0779   0.0889   0.7941
   8.000   0.3777   0.00766   0.00242   0.0775   0.0705   0.7938
   8.500   0.4345   0.00803   0.00271   0.0771   0.0569   0.7936
   9.000   0.4910   0.00842   0.00304   0.0767   0.0468   0.7934
   9.500   0.5472   0.00882   0.00341   0.0763   0.0389   0.7932
  10.000   0.6032   0.00923   0.00380   0.0760   0.0339   0.7930
  10.500   0.6589   0.00965   0.00421   0.0757   0.0299   0.7930
  11.000   0.7141   0.01012   0.00469   0.0754   0.0265   0.7929
  11.500   0.7684   0.01068   0.00525   0.0752   0.0233   0.7930
  12.000   0.8230   0.01115   0.00575   0.0749   0.0218   0.7931
  12.500   0.8760   0.01183   0.00644   0.0748   0.0194   0.7934
  13.000   0.9295   0.01236   0.00702   0.0746   0.0184   0.7937
  13.500   0.9815   0.01305   0.00773   0.0746   0.0170   0.7942
  14.000   1.0321   0.01387   0.00862   0.0746   0.0158   0.7947
  14.500   1.0831   0.01456   0.00938   0.0746   0.0151   0.7954
  15.000   1.1322   0.01541   0.01027   0.0747   0.0141   0.7963
  15.500   1.1773   0.01667   0.01163   0.0751   0.0131   0.7973
  16.000   1.2243   0.01757   0.01261   0.0752   0.0128   0.7985
  16.500   1.2688   0.01865   0.01378   0.0756   0.0123   0.7999
  17.000   1.3101   0.01991   0.01513   0.0760   0.0118   0.8016
  17.500   1.3461   0.02151   0.01682   0.0767   0.0113   0.8035
  18.000   1.3643   0.02403   0.01951   0.0783   0.0107   0.8088
  18.500   1.3758   0.02903   0.02475   0.0741   0.0104   0.8169
  19.000   1.3859   0.03417   0.03009   0.0705   0.0103   0.8289
  19.500   1.3832   0.04074   0.03691   0.0665   0.0102   0.8525
  20.000   1.3605   0.04947   0.04615   0.0622   0.0101   0.9405
  20.500   1.3186   0.06167   0.05868   0.0556   0.0100   1.0001
  21.000   1.2513   0.07859   0.07589   0.0464   0.0101   1.0001
  21.500   1.1564   0.10109   0.09870   0.0344   0.0102   1.0001
  22.000   1.0654   0.12441   0.12231   0.0221   0.0102   1.0001
  22.500   1.0095   0.14285   0.14094   0.0120   0.0102   1.0001
  23.000   0.9781   0.15740   0.15563   0.0037   0.0101   1.0001
  23.500   0.9530   0.17139   0.16975  -0.0046   0.0099   1.0001
  24.000   0.9335   0.18488   0.18335  -0.0129   0.0096   1.0001
  24.500   0.9198   0.19768   0.19624  -0.0210   0.0093   1.0001
  25.000   0.9077   0.21063   0.20927  -0.0292   0.0090   1.0001
