  
       XFOIL         Version 6.99
  
 Calculated polar for: NACA 0012                                       
  
 1 1 Reynolds number fixed          Mach number fixed         
  
 xtrf =   1.000 (top)        1.000 (bottom)  
 Mach =   0.000     Re =     1.521 e 6     Ncrit =   9.000
  
   alpha    CL        CD       CDp       CM     Top_Xtr  Bot_Xtr
  ------ -------- --------- --------- -------- -------- --------
 -15.000  -0.4576   0.01646   0.01137  -0.1727   0.7550   0.0257
 -14.500  -0.4010   0.01559   0.01045  -0.1742   0.7552   0.0287
 -14.000  -0.3438   0.01499   0.00978  -0.1755   0.7554   0.0315
 -13.500  -0.2865   0.01433   0.00911  -0.1768   0.7557   0.0359
 -13.000  -0.2290   0.01374   0.00850  -0.1780   0.7561   0.0415
 -12.500  -0.1714   0.01322   0.00799  -0.1792   0.7565   0.0487
 -12.000  -0.1139   0.01278   0.00757  -0.1802   0.7572   0.0578
 -11.500  -0.0573   0.01252   0.00738  -0.1811   0.7586   0.0696
 -11.000  -0.0038   0.01269   0.00769  -0.1815   0.7614   0.0869
 -10.500   0.0492   0.01290   0.00801  -0.1817   0.7636   0.1072
 -10.000   0.1032   0.01301   0.00824  -0.1820   0.7651   0.1344
  -9.500   0.1572   0.01317   0.00852  -0.1823   0.7664   0.1656
  -9.000   0.2103   0.01350   0.00897  -0.1823   0.7678   0.1981
  -8.500   0.2652   0.01409   0.00966  -0.1826   0.7711   0.2329
  -8.000   0.3237   0.01380   0.00947  -0.1834   0.7713   0.2679
  -7.500   0.3826   0.01350   0.00927  -0.1842   0.7718   0.3022
  -7.000   0.4356   0.01390   0.00977  -0.1839   0.7713   0.3335
  -6.500   0.5123   0.01117   0.00699  -0.1868   0.7589   0.3673
  -6.000   0.5635   0.01179   0.00766  -0.1858   0.7542   0.3927
  -5.500   0.6314   0.01032   0.00622  -0.1878   0.7507   0.4206
  -4.500   0.7611   0.00843   0.00430  -0.1904   0.7434   0.4661
  -4.000   0.8242   0.00761   0.00352  -0.1915   0.7445   0.4861
  -3.500   0.8833   0.00720   0.00312  -0.1918   0.7396   0.5043
  -3.000   0.9412   0.00657   0.00254  -0.1918   0.7305   0.5208
  -2.500   0.9469   0.00825   0.00352  -0.1816   0.5196   0.5325
  -2.000   0.9355   0.01013   0.00505  -0.1684   0.4195   0.5434
  -1.500   0.9386   0.01263   0.00731  -0.1596   0.3459   0.5541
  -1.000   0.9565   0.01473   0.00916  -0.1536   0.2827   0.5652
  -0.500   0.9818   0.01625   0.01044  -0.1486   0.2220   0.5759
  -0.000   1.0133   0.01740   0.01135  -0.1444   0.1724   0.5857
   0.500   1.0491   0.01831   0.01209  -0.1409   0.1321   0.5954
   1.000   1.0871   0.01913   0.01273  -0.1377   0.1002   0.6039
   1.500   1.1273   0.01987   0.01337  -0.1348   0.0776   0.6122
   2.000   1.1680   0.02060   0.01398  -0.1320   0.0603   0.6192
   2.500   1.2098   0.02130   0.01465  -0.1295   0.0495   0.6260
   3.000   1.2517   0.02201   0.01532  -0.1269   0.0415   0.6324
   3.500   1.2934   0.02275   0.01603  -0.1244   0.0352   0.6378
   4.000   1.3348   0.02352   0.01680  -0.1218   0.0309   0.6425
   4.500   1.3761   0.02431   0.01759  -0.1192   0.0275   0.6474
   5.000   1.4163   0.02519   0.01847  -0.1165   0.0244   0.6516
   5.500   1.4563   0.02605   0.01937  -0.1139   0.0225   0.6548
   6.000   1.4941   0.02710   0.02045  -0.1109   0.0203   0.6580
   6.500   1.5323   0.02809   0.02149  -0.1081   0.0189   0.6618
   7.000   1.5675   0.02931   0.02273  -0.1049   0.0173   0.6650
   7.500   1.6018   0.03057   0.02408  -0.1016   0.0163   0.6670
   8.000   1.6357   0.03183   0.02543  -0.0984   0.0155   0.6690
   8.500   1.6673   0.03329   0.02694  -0.0950   0.0146   0.6716
   9.000   1.6912   0.03533   0.02908  -0.0907   0.0136   0.6746
   9.500   1.7203   0.03691   0.03076  -0.0871   0.0131   0.6769
  10.000   1.7465   0.03874   0.03270  -0.0834   0.0126   0.6786
  10.500   1.7683   0.04091   0.03497  -0.0793   0.0121   0.6804
  11.000   1.7866   0.04339   0.03756  -0.0751   0.0115   0.6828
  11.500   1.7901   0.04723   0.04159  -0.0697   0.0109   0.6850
  12.000   1.8047   0.05017   0.04467  -0.0656   0.0107   0.6866
  12.500   1.8149   0.05357   0.04824  -0.0616   0.0105   0.6880
  13.000   1.8202   0.05760   0.05244  -0.0576   0.0102   0.6899
  13.500   1.8209   0.06231   0.05733  -0.0539   0.0100   0.6917
  14.000   1.8167   0.06783   0.06303  -0.0507   0.0097   0.6933
  14.500   1.8058   0.07478   0.07018  -0.0487   0.0095   0.6945
  15.000   1.7876   0.08372   0.07935  -0.0489   0.0094   0.6956
  15.500   1.7586   0.09521   0.09110  -0.0517   0.0092   0.6967
  16.000   1.7177   0.10949   0.10567  -0.0576   0.0091   0.6975
  16.500   1.6652   0.12644   0.12293  -0.0665   0.0091   0.6979
  17.000   1.6067   0.14546   0.14226  -0.0783   0.0091   0.6981
  17.500   1.5499   0.16513   0.16222  -0.0920   0.0091   0.6982
  18.000   1.5021   0.18399   0.18132  -0.1061   0.0091   0.6984
  18.500   1.4664   0.20104   0.19856  -0.1195   0.0090   0.6988
  19.000   1.4417   0.21601   0.21367  -0.1317   0.0087   0.6993
  19.500   1.4138   0.23266   0.23050  -0.1457   0.0084   0.6997
  20.000   1.3928   0.24858   0.24661  -0.1591   0.0083   0.7001
  21.000   1.3001   0.33458   0.33284  -0.2184   0.0056   0.6965
  21.500   1.3134   0.33998   0.33826  -0.2232   0.0052   0.6978
  22.000   1.3263   0.34461   0.34290  -0.2277   0.0049   0.6991
  22.500   1.3386   0.34881   0.34710  -0.2320   0.0048   0.7003
  24.000   1.3776   0.36885   0.36719  -0.2488   0.0037   0.7039
  24.500   1.3892   0.37330   0.37165  -0.2536   0.0035   0.7051
  25.000   1.4003   0.37740   0.37577  -0.2583   0.0034   0.7062
