  
       XFOIL         Version 6.99
  
 Calculated polar for: NACA 0012                                       
  
 1 1 Reynolds number fixed          Mach number fixed         
  
 xtrf =   1.000 (top)        1.000 (bottom)  
 Mach =   0.000     Re =     1.521 e 6     Ncrit =   9.000
  
   alpha    CL        CD       CDp       CM     Top_Xtr  Bot_Xtr
  ------ -------- --------- --------- -------- -------- --------
 -15.000  -1.4634   0.02483   0.02011  -0.0264   1.0000   0.0128
 -14.500  -1.4412   0.02305   0.01820  -0.0232   1.0000   0.0133
 -14.000  -1.4142   0.02171   0.01675  -0.0198   1.0000   0.0136
 -13.500  -1.3904   0.02002   0.01492  -0.0158   1.0000   0.0143
 -13.000  -1.3551   0.01871   0.01354  -0.0133   1.0000   0.0152
 -12.500  -1.3147   0.01769   0.01244  -0.0114   1.0000   0.0160
 -12.000  -1.2715   0.01681   0.01148  -0.0098   1.0000   0.0166
 -11.500  -1.2307   0.01564   0.01023  -0.0078   1.0000   0.0179
 -11.000  -1.1856   0.01484   0.00940  -0.0063   1.0000   0.0193
 -10.500  -1.1398   0.01412   0.00862  -0.0047   1.0000   0.0204
 -10.000  -1.0963   0.01327   0.00775  -0.0028   1.0000   0.0224
  -9.500  -1.0514   0.01271   0.00715  -0.0008   1.0000   0.0239
  -9.000  -1.0093   0.01199   0.00643   0.0017   1.0000   0.0268
  -8.500  -0.9666   0.01145   0.00587   0.0042   1.0000   0.0295
  -8.000  -0.9246   0.01093   0.00535   0.0068   1.0000   0.0330
  -7.500  -0.8658   0.01035   0.00480   0.0058   0.9984   0.0384
  -7.000  -0.7992   0.00981   0.00429   0.0032   0.9958   0.0457
  -6.500  -0.7314   0.00924   0.00381   0.0004   0.9936   0.0574
  -6.000  -0.6669   0.00871   0.00337  -0.0017   0.9890   0.0723
  -5.500  -0.6000   0.00817   0.00295  -0.0043   0.9847   0.0953
  -5.000  -0.5402   0.00765   0.00259  -0.0052   0.9750   0.1256
  -4.500  -0.4846   0.00715   0.00225  -0.0052   0.9606   0.1639
  -4.000  -0.4319   0.00671   0.00196  -0.0043   0.9413   0.2080
  -3.500  -0.3795   0.00631   0.00171  -0.0035   0.9167   0.2564
  -3.000  -0.3265   0.00599   0.00149  -0.0027   0.8869   0.3077
  -2.500  -0.2729   0.00572   0.00131  -0.0021   0.8515   0.3600
  -2.000  -0.2188   0.00553   0.00116  -0.0015   0.8112   0.4123
  -1.500  -0.1645   0.00538   0.00105  -0.0011   0.7667   0.4653
  -1.000  -0.1098   0.00529   0.00098  -0.0007   0.7195   0.5175
  -0.500  -0.0550   0.00524   0.00093  -0.0003   0.6703   0.5692
  -0.000   0.0000   0.00522   0.00092  -0.0000   0.6201   0.6199
   0.500   0.0550   0.00524   0.00093   0.0003   0.5693   0.6704
   1.000   0.1098   0.00529   0.00098   0.0007   0.5175   0.7196
   1.500   0.1645   0.00538   0.00105   0.0010   0.4649   0.7667
   2.000   0.2189   0.00553   0.00116   0.0015   0.4124   0.8108
   2.500   0.2728   0.00573   0.00131   0.0021   0.3595   0.8515
   3.000   0.3265   0.00599   0.00149   0.0027   0.3077   0.8869
   3.500   0.3795   0.00631   0.00171   0.0035   0.2565   0.9166
   4.000   0.4319   0.00671   0.00196   0.0043   0.2079   0.9412
   4.500   0.4846   0.00715   0.00225   0.0052   0.1639   0.9606
   5.000   0.5402   0.00765   0.00259   0.0052   0.1255   0.9750
   5.500   0.6000   0.00817   0.00295   0.0043   0.0953   0.9847
   6.000   0.6669   0.00871   0.00337   0.0017   0.0723   0.9890
   6.500   0.7314   0.00924   0.00381  -0.0004   0.0574   0.9936
   7.000   0.7993   0.00981   0.00429  -0.0032   0.0457   0.9958
   7.500   0.8659   0.01035   0.00480  -0.0059   0.0384   0.9985
   8.000   0.9245   0.01093   0.00535  -0.0068   0.0330   1.0000
   8.500   0.9665   0.01145   0.00586  -0.0041   0.0295   1.0000
   9.000   1.0092   0.01199   0.00643  -0.0017   0.0268   1.0000
   9.500   1.0514   0.01271   0.00714   0.0008   0.0239   1.0000
  10.000   1.0963   0.01327   0.00775   0.0028   0.0224   1.0000
  10.500   1.1398   0.01412   0.00862   0.0047   0.0204   1.0000
  11.000   1.1857   0.01483   0.00939   0.0062   0.0192   1.0000
  11.500   1.2308   0.01564   0.01023   0.0077   0.0179   1.0000
  12.000   1.2717   0.01681   0.01148   0.0097   0.0166   1.0000
  12.500   1.3149   0.01769   0.01244   0.0113   0.0159   1.0000
  13.000   1.3554   0.01871   0.01354   0.0132   0.0152   1.0000
  13.500   1.3907   0.02002   0.01492   0.0157   0.0143   1.0000
  14.000   1.4147   0.02172   0.01676   0.0197   0.0137   1.0000
  14.500   1.4417   0.02306   0.01821   0.0231   0.0133   1.0000
  15.000   1.4643   0.02483   0.02010   0.0262   0.0128   1.0000
  15.500   1.4825   0.02710   0.02250   0.0289   0.0124   1.0000
  16.000   1.4950   0.03017   0.02571   0.0309   0.0120   1.0000
  16.500   1.4981   0.03466   0.03037   0.0316   0.0116   1.0000
  17.000   1.4831   0.04207   0.03802   0.0299   0.0113   1.0000
  17.500   1.4593   0.05178   0.04800   0.0258   0.0111   1.0000
  18.000   1.4329   0.06264   0.05911   0.0205   0.0111   1.0000
  18.500   1.3850   0.07731   0.07406   0.0131   0.0110   1.0000
  19.000   1.3197   0.09549   0.09254   0.0039   0.0111   1.0000
  19.500   1.2535   0.11466   0.11197  -0.0060   0.0111   1.0000
  20.000   1.1994   0.13253   0.13007  -0.0156   0.0111   1.0000
  20.500   1.1602   0.14840   0.14612  -0.0245   0.0110   1.0000
  21.000   1.1314   0.16279   0.16067  -0.0331   0.0109   1.0000
  21.500   1.1041   0.17776   0.17580  -0.0425   0.0108   1.0000
  22.000   1.0801   0.19278   0.19099  -0.0522   0.0106   1.0000
  23.500   0.5987   0.23893   0.23769  -0.0490   0.0079   1.0000
  24.000   0.6066   0.24390   0.24267  -0.0516   0.0073   1.0000
  24.500   0.6149   0.24841   0.24719  -0.0541   0.0070   1.0000
  25.000   0.6237   0.25252   0.25131  -0.0565   0.0069   1.0000
