  
       XFOIL         Version 6.99
  
 Calculated polar for: NACA 0012                                       
  
 1 1 Reynolds number fixed          Mach number fixed         
  
 xtrf =   1.000 (top)        1.000 (bottom)  
 Mach =   0.000     Re =     2.332 e 6     Ncrit =   9.000
  
   alpha    CL        CD       CDp       CM     Top_Xtr  Bot_Xtr
  ------ -------- --------- --------- -------- -------- --------
 -15.000  -1.3759   0.01824   0.01360  -0.0397   1.0000   0.0119
 -14.500  -1.3389   0.01691   0.01218  -0.0377   1.0000   0.0128
 -14.000  -1.2975   0.01598   0.01121  -0.0360   1.0000   0.0135
 -13.500  -1.2567   0.01520   0.01038  -0.0339   1.0000   0.0141
 -13.000  -1.2183   0.01451   0.00964  -0.0312   1.0000   0.0145
 -12.500  -1.1624   0.01349   0.00857  -0.0323   0.9979   0.0160
 -12.000  -1.1017   0.01276   0.00782  -0.0342   0.9954   0.0171
 -11.500  -1.0411   0.01200   0.00703  -0.0360   0.9924   0.0186
 -10.500  -0.9282   0.01076   0.00575  -0.0373   0.9748   0.0223
 -10.000  -0.8764   0.01024   0.00521  -0.0368   0.9605   0.0246
  -9.500  -0.8252   0.00975   0.00469  -0.0360   0.9445   0.0277
  -9.000  -0.7726   0.00933   0.00422  -0.0355   0.9288   0.0311
  -8.500  -0.7191   0.00894   0.00380  -0.0352   0.9145   0.0351
  -8.000  -0.6651   0.00854   0.00339  -0.0349   0.9016   0.0416
  -7.500  -0.6106   0.00816   0.00301  -0.0347   0.8894   0.0502
  -7.000  -0.5560   0.00778   0.00266  -0.0346   0.8755   0.0623
  -6.500  -0.5005   0.00744   0.00235  -0.0345   0.8629   0.0761
  -6.000  -0.4451   0.00707   0.00206  -0.0345   0.8529   0.0983
  -5.500  -0.3893   0.00671   0.00179  -0.0345   0.8435   0.1258
  -5.000  -0.3331   0.00637   0.00156  -0.0346   0.8356   0.1594
  -4.500  -0.2770   0.00602   0.00136  -0.0347   0.8273   0.2005
  -4.000  -0.2204   0.00570   0.00119  -0.0349   0.8191   0.2449
  -3.500  -0.1636   0.00543   0.00105  -0.0350   0.8105   0.2892
  -3.000  -0.1065   0.00518   0.00094  -0.0352   0.8012   0.3347
  -2.500  -0.0497   0.00498   0.00085  -0.0353   0.7890   0.3800
  -2.000   0.0076   0.00480   0.00079  -0.0355   0.7751   0.4237
  -1.500   0.0647   0.00468   0.00074  -0.0356   0.7543   0.4651
  -1.000   0.1182   0.00490   0.00074  -0.0350   0.6459   0.5039
  -0.500   0.1723   0.00516   0.00082  -0.0346   0.5621   0.5415
  -0.000   0.2272   0.00537   0.00091  -0.0343   0.4953   0.5764
   0.500   0.2822   0.00559   0.00101  -0.0341   0.4336   0.6082
   1.000   0.3373   0.00585   0.00114  -0.0339   0.3766   0.6358
   1.500   0.3922   0.00616   0.00130  -0.0336   0.3199   0.6596
   2.000   0.4470   0.00652   0.00149  -0.0333   0.2664   0.6779
   2.500   0.5016   0.00691   0.00171  -0.0331   0.2157   0.6912
   3.000   0.5559   0.00732   0.00194  -0.0327   0.1698   0.7013
   3.500   0.6101   0.00772   0.00219  -0.0324   0.1324   0.7107
   4.000   0.6638   0.00810   0.00248  -0.0319   0.1017   0.7216
   4.500   0.7175   0.00844   0.00279  -0.0315   0.0797   0.7425
   5.000   0.7627   0.00834   0.00317  -0.0290   0.0633   0.9395
   6.000   0.8909   0.00928   0.00401  -0.0328   0.0413   0.9989
   6.500   0.9430   0.00975   0.00443  -0.0321   0.0348   1.0000
   7.000   0.9920   0.01020   0.00486  -0.0306   0.0307   1.0000
   7.500   1.0416   0.01070   0.00534  -0.0294   0.0272   1.0000
   8.000   1.0909   0.01127   0.00589  -0.0282   0.0238   1.0000
   8.500   1.1407   0.01180   0.00641  -0.0271   0.0219   1.0000
   9.000   1.1893   0.01244   0.00706  -0.0259   0.0198   1.0000
   9.500   1.2381   0.01303   0.00767  -0.0247   0.0184   1.0000
  10.000   1.2845   0.01382   0.00847  -0.0233   0.0166   1.0000
  10.500   1.3317   0.01446   0.00915  -0.0219   0.0159   1.0000
  11.000   1.3767   0.01523   0.00994  -0.0203   0.0148   1.0000
  11.500   1.4179   0.01626   0.01103  -0.0181   0.0136   1.0000
  12.000   1.4606   0.01705   0.01187  -0.0162   0.0132   1.0000
  12.500   1.5004   0.01794   0.01282  -0.0139   0.0126   1.0000
  13.000   1.5333   0.01897   0.01389  -0.0105   0.0120   1.0000
  13.500   1.5581   0.02044   0.01545  -0.0062   0.0112   1.0000
  14.000   1.5851   0.02181   0.01693  -0.0026   0.0109   1.0000
  14.500   1.6113   0.02328   0.01850   0.0008   0.0107   1.0000
  15.000   1.6340   0.02507   0.02039   0.0041   0.0104   1.0000
  15.500   1.6532   0.02722   0.02265   0.0072   0.0100   1.0000
  16.000   1.6681   0.02986   0.02540   0.0100   0.0097   1.0000
  16.500   1.6769   0.03322   0.02889   0.0125   0.0094   1.0000
  17.000   1.6755   0.03785   0.03369   0.0145   0.0091   1.0000
  17.500   1.6591   0.04475   0.04082   0.0148   0.0088   1.0000
  18.000   1.6423   0.05301   0.04931   0.0126   0.0087   1.0000
  18.500   1.6197   0.06306   0.05959   0.0086   0.0087   1.0000
  19.000   1.5756   0.07699   0.07378   0.0020   0.0086   1.0000
  19.500   1.4940   0.09767   0.09481  -0.0084   0.0087   1.0000
  20.000   1.3721   0.12675   0.12430  -0.0241   0.0087   1.0000
  20.500   1.2986   0.14876   0.14658  -0.0368   0.0088   1.0000
  21.000   1.2360   0.17017   0.16822  -0.0504   0.0088   1.0000
  21.500   1.2043   0.18603   0.18424  -0.0610   0.0087   1.0000
  22.000   1.1818   0.20040   0.19874  -0.0710   0.0086   1.0000
  22.500   1.1674   0.21342   0.21188  -0.0802   0.0085   1.0000
  23.000   1.1548   0.22655   0.22513  -0.0897   0.0082   1.0000
  23.500   1.1414   0.24082   0.23951  -0.1001   0.0079   1.0000
