  
       XFOIL         Version 6.99
  
 Calculated polar for: NACA 0012                                       
  
 1 1 Reynolds number fixed          Mach number fixed         
  
 xtrf =   1.000 (top)        1.000 (bottom)  
 Mach =   0.000     Re =     1.521 e 6     Ncrit =   9.000
  
   alpha    CL        CD       CDp       CM     Top_Xtr  Bot_Xtr
  ------ -------- --------- --------- -------- -------- --------
 -15.000  -1.1687   0.01860   0.01369  -0.0684   0.8886   0.0153
 -14.500  -1.1285   0.01715   0.01204  -0.0674   0.8696   0.0162
 -14.000  -1.0828   0.01612   0.01089  -0.0668   0.8577   0.0173
 -13.500  -1.0341   0.01529   0.00996  -0.0666   0.8505   0.0182
 -13.000  -0.9855   0.01434   0.00889  -0.0662   0.8449   0.0195
 -12.500  -0.9352   0.01355   0.00804  -0.0660   0.8402   0.0211
 -12.000  -0.8828   0.01295   0.00736  -0.0661   0.8372   0.0225
 -11.500  -0.8312   0.01213   0.00651  -0.0660   0.8352   0.0251
 -11.000  -0.7777   0.01155   0.00587  -0.0660   0.8333   0.0274
 -10.500  -0.7239   0.01096   0.00528  -0.0662   0.8317   0.0309
 -10.000  -0.6697   0.01040   0.00470  -0.0663   0.8303   0.0352
  -9.500  -0.6148   0.00990   0.00420  -0.0664   0.8291   0.0406
  -9.000  -0.5595   0.00943   0.00375  -0.0667   0.8280   0.0479
  -8.500  -0.5038   0.00899   0.00334  -0.0669   0.8272   0.0578
  -8.000  -0.4478   0.00858   0.00298  -0.0672   0.8264   0.0708
  -7.500  -0.3916   0.00815   0.00264  -0.0675   0.8258   0.0909
  -7.000  -0.3352   0.00774   0.00235  -0.0678   0.8252   0.1167
  -6.500  -0.2785   0.00736   0.00209  -0.0682   0.8245   0.1490
  -6.000  -0.2220   0.00699   0.00187  -0.0685   0.8206   0.1882
  -5.500  -0.1652   0.00662   0.00165  -0.0687   0.8169   0.2301
  -5.000  -0.1081   0.00630   0.00148  -0.0690   0.8135   0.2753
  -4.500  -0.0509   0.00602   0.00135  -0.0693   0.8099   0.3196
  -4.000   0.0066   0.00583   0.00126  -0.0696   0.8055   0.3626
  -3.500   0.0643   0.00561   0.00119  -0.0699   0.8019   0.4044
  -3.000   0.1222   0.00542   0.00113  -0.0702   0.7971   0.4434
  -2.500   0.1798   0.00529   0.00108  -0.0704   0.7904   0.4792
  -2.000   0.2376   0.00516   0.00106  -0.0706   0.7827   0.5128
  -1.500   0.2950   0.00507   0.00104  -0.0706   0.7715   0.5436
  -1.000   0.3523   0.00499   0.00104  -0.0706   0.7541   0.5712
  -0.500   0.4000   0.00562   0.00118  -0.0688   0.5926   0.5952
  -0.000   0.4505   0.00621   0.00144  -0.0677   0.4933   0.6157
   0.500   0.5021   0.00669   0.00167  -0.0668   0.4170   0.6341
   1.000   0.5540   0.00718   0.00192  -0.0659   0.3482   0.6495
   1.500   0.6056   0.00771   0.00221  -0.0650   0.2841   0.6625
   2.000   0.6574   0.00824   0.00253  -0.0642   0.2269   0.6726
   2.500   0.7087   0.00882   0.00287  -0.0633   0.1756   0.6811
   3.000   0.7602   0.00940   0.00326  -0.0624   0.1339   0.6886
   3.500   0.8113   0.00996   0.00366  -0.0614   0.1007   0.6951
   4.000   0.8627   0.01048   0.00405  -0.0605   0.0782   0.7016
   4.500   0.9137   0.01094   0.00446  -0.0595   0.0618   0.7076
   5.000   0.9644   0.01142   0.00490  -0.0585   0.0502   0.7141
   5.500   1.0147   0.01192   0.00539  -0.0574   0.0419   0.7205
   6.000   1.0644   0.01243   0.00592  -0.0563   0.0358   0.7285
   7.000   1.1550   0.01310   0.00720  -0.0521   0.0278   0.9487
   7.500   1.2077   0.01373   0.00786  -0.0517   0.0250   0.9999
   8.000   1.2535   0.01448   0.00863  -0.0500   0.0228   0.9999
   8.500   1.2985   0.01523   0.00939  -0.0481   0.0210   0.9999
   9.000   1.3405   0.01615   0.01036  -0.0458   0.0193   0.9999
   9.500   1.3819   0.01692   0.01118  -0.0434   0.0181   0.9999
  10.000   1.4172   0.01795   0.01224  -0.0400   0.0168   0.9999
  10.500   1.4506   0.01907   0.01345  -0.0365   0.0159   0.9999
  11.000   1.4847   0.02013   0.01460  -0.0333   0.0152   0.9999
  11.500   1.5161   0.02137   0.01591  -0.0299   0.0145   0.9999
  12.000   1.5413   0.02304   0.01767  -0.0260   0.0137   0.9999
  12.500   1.5626   0.02500   0.01977  -0.0219   0.0131   0.9999
  13.000   1.5881   0.02670   0.02158  -0.0186   0.0127   0.9999
  13.500   1.6097   0.02872   0.02373  -0.0152   0.0123   0.9999
  14.000   1.6272   0.03115   0.02628  -0.0119   0.0119   0.9999
  14.500   1.6389   0.03413   0.02939  -0.0085   0.0115   0.9999
  15.000   1.6407   0.03814   0.03355  -0.0052   0.0111   0.9999
  15.500   1.6227   0.04442   0.04008  -0.0023   0.0107   0.9999
  16.000   1.6183   0.05021   0.04607  -0.0015   0.0106   0.9999
  16.500   1.6081   0.05784   0.05393  -0.0029   0.0105   0.9999
  17.000   1.5856   0.06833   0.06468  -0.0068   0.0104   0.9999
  17.500   1.5449   0.08238   0.07902  -0.0132   0.0103   0.9999
  18.000   1.4810   0.10083   0.09779  -0.0223   0.0103   0.9999
  18.500   1.4069   0.12183   0.11910  -0.0333   0.0104   0.9999
  19.000   1.3437   0.14189   0.13943  -0.0448   0.0104   0.9999
  19.500   1.2983   0.15939   0.15714  -0.0555   0.0104   0.9999
  20.000   1.2645   0.17541   0.17335  -0.0659   0.0103   0.9999
  20.500   1.2360   0.19097   0.18908  -0.0766   0.0101   0.9999
  21.000   1.2135   0.20593   0.20419  -0.0872   0.0099   0.9999
  21.500   1.1788   0.22590   0.22437  -0.1015   0.0096   0.9999
  22.000   1.0643   0.29800   0.29667  -0.1417   0.0070   0.9999
  22.500   1.0799   0.30283   0.30151  -0.1460   0.0067   0.9999
  23.000   1.0951   0.30712   0.30581  -0.1501   0.0065   0.9999
  23.500   1.1083   0.31440   0.31308  -0.1552   0.0064   0.9999
  24.000   1.1234   0.32482   0.32351  -0.1620   0.0055   0.9999
  24.500   1.1381   0.33025   0.32895  -0.1668   0.0051   0.9999
  25.000   1.1524   0.33498   0.33369  -0.1714   0.0049   0.9999
