  
       XFOIL         Version 6.99
  
 Calculated polar for: NACA 0012                                       
  
 1 1 Reynolds number fixed          Mach number fixed         
  
 xtrf =   1.000 (top)        1.000 (bottom)  
 Mach =   0.000     Re =     2.332 e 6     Ncrit =   9.000
  
   alpha    CL        CD       CDp       CM     Top_Xtr  Bot_Xtr
  ------ -------- --------- --------- -------- -------- --------
 -15.000  -1.5971   0.02353   0.01885  -0.0096   1.0000   0.0106
 -14.500  -1.5727   0.02196   0.01717  -0.0063   1.0000   0.0109
 -14.000  -1.5448   0.02068   0.01580  -0.0029   1.0000   0.0111
 -13.500  -1.5212   0.01920   0.01420   0.0016   1.0000   0.0117
 -13.000  -1.4883   0.01805   0.01300   0.0048   1.0000   0.0124
 -12.500  -1.4485   0.01711   0.01201   0.0070   1.0000   0.0131
 -12.000  -1.4058   0.01628   0.01113   0.0088   1.0000   0.0136
 -11.500  -1.3634   0.01534   0.01012   0.0107   1.0000   0.0144
 -11.000  -1.3189   0.01449   0.00925   0.0123   1.0000   0.0155
 -10.500  -1.2721   0.01381   0.00853   0.0137   1.0000   0.0165
 -10.000  -1.2251   0.01308   0.00777   0.0150   1.0000   0.0178
  -9.500  -1.1771   0.01243   0.00712   0.0163   1.0000   0.0194
  -9.000  -1.1283   0.01185   0.00651   0.0175   1.0000   0.0209
  -8.500  -1.0800   0.01125   0.00592   0.0188   1.0000   0.0233
  -8.000  -1.0318   0.01072   0.00540   0.0202   1.0000   0.0258
  -7.500  -0.9843   0.01027   0.00495   0.0219   1.0000   0.0285
  -7.000  -0.9381   0.00977   0.00449   0.0238   1.0000   0.0329
  -6.500  -0.8879   0.00931   0.00407   0.0249   0.9995   0.0385
  -6.000  -0.8214   0.00882   0.00364   0.0225   0.9964   0.0462
  -5.500  -0.7545   0.00832   0.00323   0.0199   0.9928   0.0585
  -5.000  -0.6916   0.00787   0.00287   0.0183   0.9819   0.0733
  -4.500  -0.6358   0.00743   0.00252   0.0184   0.9532   0.0952
  -4.000  -0.5879   0.00722   0.00219   0.0204   0.8588   0.1218
  -3.500  -0.5370   0.00714   0.00190   0.0215   0.7472   0.1551
  -3.000  -0.4831   0.00682   0.00167   0.0219   0.7195   0.1979
  -2.500  -0.4285   0.00648   0.00147   0.0221   0.7049   0.2454
  -2.000  -0.3734   0.00616   0.00130   0.0223   0.6897   0.2962
  -1.500  -0.3181   0.00585   0.00115   0.0225   0.6683   0.3493
  -1.000  -0.2627   0.00559   0.00101   0.0227   0.6406   0.4047
  -0.500  -0.2072   0.00540   0.00091   0.0228   0.6078   0.4603
  -0.000  -0.1519   0.00523   0.00084   0.0230   0.5710   0.5189
   1.000  -0.0417   0.00494   0.00075   0.0234   0.4904   0.6517
   1.500   0.0121   0.00479   0.00077   0.0239   0.4477   0.7501
   2.000   0.0687   0.00492   0.00084   0.0239   0.4028   0.7777
   2.500   0.1253   0.00510   0.00092   0.0239   0.3572   0.7974
   3.000   0.1819   0.00532   0.00103   0.0238   0.3101   0.8132
   3.500   0.2383   0.00560   0.00116   0.0238   0.2628   0.8264
   4.000   0.2945   0.00591   0.00133   0.0237   0.2170   0.8393
   4.500   0.3503   0.00622   0.00153   0.0238   0.1750   0.8524
   5.000   0.4058   0.00656   0.00176   0.0238   0.1384   0.8653
   5.500   0.4612   0.00691   0.00202   0.0239   0.1085   0.8794
   6.000   0.5161   0.00727   0.00230   0.0241   0.0847   0.8940
   6.500   0.5705   0.00765   0.00263   0.0244   0.0666   0.9102
   7.000   0.6244   0.00799   0.00297   0.0248   0.0543   0.9277
   7.500   0.6767   0.00836   0.00334   0.0256   0.0452   0.9477
   8.000   0.7287   0.00876   0.00374   0.0264   0.0384   0.9641
   8.500   0.7821   0.00920   0.00417   0.0268   0.0330   0.9756
   9.000   0.8377   0.00969   0.00464   0.0267   0.0287   0.9848
   9.500   0.8976   0.01026   0.00519   0.0254   0.0248   0.9903
  10.000   0.9583   0.01078   0.00571   0.0240   0.0228   0.9941
  10.500   1.0211   0.01145   0.00638   0.0219   0.0204   0.9958
  11.000   1.0829   0.01206   0.00701   0.0201   0.0188   0.9979
  11.500   1.1429   0.01285   0.00781   0.0185   0.0170   0.9998
  12.000   1.1847   0.01343   0.00843   0.0208   0.0162   1.0000
  12.500   1.2251   0.01414   0.00916   0.0233   0.0152   1.0000
  13.000   1.2655   0.01509   0.01018   0.0256   0.0141   1.0000
  13.500   1.3099   0.01584   0.01098   0.0270   0.0136   1.0000
  14.000   1.3533   0.01671   0.01190   0.0285   0.0130   1.0000
  14.500   1.3941   0.01775   0.01298   0.0301   0.0123   1.0000
  15.000   1.4282   0.01925   0.01459   0.0324   0.0114   1.0000
  15.500   1.4649   0.02035   0.01578   0.0344   0.0112   1.0000
  16.000   1.4922   0.02166   0.01718   0.0377   0.0109   1.0000
  16.500   1.5140   0.02333   0.01896   0.0409   0.0106   1.0000
  17.000   1.5318   0.02558   0.02132   0.0433   0.0103   1.0000
  17.500   1.5446   0.02876   0.02463   0.0444   0.0100   1.0000
  18.000   1.5499   0.03351   0.02953   0.0435   0.0097   1.0000
  18.500   1.5409   0.04049   0.03672   0.0410   0.0094   1.0000
  19.000   1.5122   0.05069   0.04718   0.0362   0.0092   1.0000
  19.500   1.4658   0.06406   0.06083   0.0294   0.0091   1.0000
  20.000   1.4019   0.08088   0.07795   0.0208   0.0091   1.0000
  20.500   1.3285   0.10013   0.09749   0.0109   0.0093   1.0000
  21.000   1.2458   0.12202   0.11966  -0.0006   0.0094   1.0000
  21.500   1.1657   0.14493   0.14284  -0.0134   0.0095   1.0000
  22.000   1.1112   0.16441   0.16252  -0.0251   0.0095   1.0000
  22.500   1.0804   0.17992   0.17816  -0.0349   0.0092   1.0000
  23.000   1.0643   0.19273   0.19109  -0.0433   0.0090   1.0000
  23.500   1.0513   0.20526   0.20373  -0.0518   0.0089   1.0000
  24.000   1.0326   0.22024   0.21884  -0.0618   0.0086   1.0000
  24.500   0.5788   0.23784   0.23683  -0.0407   0.0057   1.0000
  25.000   0.5875   0.24224   0.24123  -0.0434   0.0055   1.0000
