  
       XFOIL         Version 6.99
  
 Calculated polar for: NACA 0012                                       
  
 1 1 Reynolds number fixed          Mach number fixed         
  
 xtrf =   1.000 (top)        1.000 (bottom)  
 Mach =   0.000     Re =     1.521 e 6     Ncrit =   9.000
  
   alpha    CL        CD       CDp       CM     Top_Xtr  Bot_Xtr
  ------ -------- --------- --------- -------- -------- --------
 -15.000  -1.7025   0.04697   0.04253   0.0178   0.9999   0.0106
 -14.500  -1.7028   0.04239   0.03779   0.0208   0.9999   0.0108
 -14.000  -1.6963   0.03877   0.03404   0.0242   0.9999   0.0112
 -13.500  -1.6843   0.03576   0.03089   0.0277   0.9999   0.0115
 -13.000  -1.6687   0.03315   0.02814   0.0313   0.9999   0.0119
 -12.500  -1.6495   0.03086   0.02572   0.0349   0.9999   0.0122
 -12.000  -1.6338   0.02835   0.02305   0.0392   0.9999   0.0126
 -11.500  -1.6148   0.02609   0.02068   0.0434   0.9999   0.0134
 -10.500  -1.5609   0.02353   0.01743   0.0510   0.7368   0.0146
 -10.000  -1.5280   0.02233   0.01611   0.0541   0.7304   0.0151
  -9.500  -1.4983   0.02083   0.01450   0.0578   0.7256   0.0163
  -9.000  -1.4626   0.01978   0.01337   0.0608   0.7212   0.0174
  -8.500  -1.4245   0.01888   0.01239   0.0635   0.7175   0.0183
  -8.000  -1.3877   0.01782   0.01125   0.0665   0.7133   0.0199
  -7.500  -1.3472   0.01701   0.01039   0.0691   0.7095   0.0215
  -7.000  -1.3059   0.01623   0.00954   0.0716   0.7057   0.0235
  -6.500  -1.2632   0.01552   0.00881   0.0739   0.7018   0.0259
  -6.000  -1.2202   0.01480   0.00807   0.0763   0.6974   0.0290
  -5.500  -1.1774   0.01422   0.00746   0.0788   0.6933   0.0321
  -5.000  -1.1340   0.01359   0.00686   0.0812   0.6889   0.0371
  -4.500  -1.0876   0.01297   0.00627   0.0831   0.6850   0.0436
  -4.000  -1.0402   0.01237   0.00571   0.0848   0.6798   0.0523
  -3.500  -0.9926   0.01176   0.00517   0.0865   0.6752   0.0658
  -2.500  -0.8962   0.01056   0.00420   0.0896   0.6623   0.1088
  -2.000  -0.8484   0.00992   0.00375   0.0913   0.6541   0.1450
  -1.500  -0.8007   0.00930   0.00332   0.0929   0.6452   0.1903
  -1.000  -0.7533   0.00866   0.00292   0.0947   0.6343   0.2464
  -0.500  -0.7059   0.00805   0.00256   0.0964   0.6221   0.3095
  -0.000  -0.6584   0.00745   0.00222   0.0981   0.6084   0.3806
   0.500  -0.6114   0.00682   0.00189   0.0999   0.5927   0.4646
   1.000  -0.5676   0.00594   0.00146   0.1023   0.5752   0.5875
   1.500  -0.5230   0.00525   0.00127   0.1048   0.5559   0.7497
   2.000  -0.4656   0.00535   0.00130   0.1048   0.5327   0.7616
   2.500  -0.4078   0.00551   0.00136   0.1047   0.5079   0.7690
   3.000  -0.3499   0.00559   0.00137   0.1045   0.4794   0.7753
   3.500  -0.2919   0.00573   0.00144   0.1043   0.4501   0.7797
   4.000  -0.2337   0.00591   0.00151   0.1040   0.4177   0.7832
   4.500  -0.1755   0.00612   0.00160   0.1036   0.3811   0.7856
   5.000  -0.1175   0.00634   0.00169   0.1032   0.3429   0.7874
   5.500  -0.0597   0.00648   0.00172   0.1028   0.3039   0.7906
   6.000  -0.0021   0.00674   0.00189   0.1025   0.2626   0.7945
   6.500   0.0554   0.00706   0.00208   0.1020   0.2205   0.7968
   7.000   0.1131   0.00735   0.00222   0.1015   0.1803   0.7960
   7.500   0.1705   0.00769   0.00240   0.1009   0.1433   0.7952
   8.000   0.2277   0.00804   0.00262   0.1003   0.1126   0.7944
   8.500   0.2847   0.00843   0.00289   0.0998   0.0874   0.7936
   9.000   0.3417   0.00880   0.00319   0.0993   0.0708   0.7928
   9.500   0.3982   0.00924   0.00355   0.0988   0.0564   0.7921
  10.000   0.4546   0.00967   0.00395   0.0983   0.0470   0.7913
  10.500   0.5106   0.01015   0.00440   0.0978   0.0400   0.7905
  11.000   0.5661   0.01067   0.00491   0.0974   0.0346   0.7897
  11.500   0.6216   0.01115   0.00541   0.0969   0.0310   0.7890
  12.000   0.6762   0.01174   0.00603   0.0965   0.0278   0.7882
  12.500   0.7299   0.01244   0.00674   0.0962   0.0249   0.7875
  13.000   0.7838   0.01305   0.00741   0.0958   0.0231   0.7869
  13.500   0.8360   0.01384   0.00824   0.0955   0.0211   0.7866
  14.000   0.8876   0.01467   0.00915   0.0952   0.0198   0.7864
  14.500   0.9387   0.01547   0.01003   0.0949   0.0186   0.7862
  15.000   0.9860   0.01675   0.01139   0.0948   0.0171   0.7861
  15.500   1.0346   0.01773   0.01247   0.0945   0.0164   0.7859
  16.000   1.0813   0.01885   0.01369   0.0942   0.0156   0.7858
  16.500   1.1248   0.02025   0.01518   0.0940   0.0148   0.7857
  17.000   1.1561   0.02293   0.01803   0.0935   0.0139   0.7856
  17.500   1.1911   0.02524   0.02051   0.0919   0.0136   0.7856
  18.000   1.2060   0.03041   0.02589   0.0862   0.0133   0.7856
  18.500   1.2095   0.03659   0.03225   0.0815   0.0130   0.7857
  19.000   1.1994   0.04451   0.04035   0.0763   0.0128   0.7858
  19.500   1.1730   0.05478   0.05083   0.0702   0.0127   0.7859
  20.000   1.1322   0.06753   0.06380   0.0629   0.0126   0.7860
  20.500   1.0799   0.08266   0.07915   0.0546   0.0126   0.7861
  21.000   1.0259   0.09876   0.09547   0.0460   0.0126   0.7862
  21.500   0.9807   0.11408   0.11095   0.0379   0.0125   0.7862
  22.000   0.9417   0.12896   0.12599   0.0300   0.0124   0.7863
  22.500   0.9135   0.14250   0.13965   0.0227   0.0122   0.7864
  23.000   0.8862   0.15645   0.15372   0.0149   0.0119   0.7865
  23.500   0.8670   0.16937   0.16673   0.0074   0.0115   0.7866
