  
       XFOIL         Version 6.99
  
 Calculated polar for: NACA 0012                                       
  
 1 1 Reynolds number fixed          Mach number fixed         
  
 xtrf =   1.000 (top)        1.000 (bottom)  
 Mach =   0.000     Re =     1.521 e 6     Ncrit =   9.000
  
   alpha    CL        CD       CDp       CM     Top_Xtr  Bot_Xtr
  ------ -------- --------- --------- -------- -------- --------
 -15.000  -0.3112   0.02149   0.01694  -0.1943   0.7762   0.0299
 -14.500  -0.2651   0.02163   0.01706  -0.1940   0.7763   0.0328
 -14.000  -0.2217   0.02189   0.01731  -0.1933   0.7763   0.0369
 -13.500  -0.1838   0.02250   0.01790  -0.1914   0.7762   0.0409
 -13.000  -0.1652   0.02369   0.01910  -0.1863   0.7759   0.0456
 -12.500  -0.1421   0.02485   0.02025  -0.1820   0.7758   0.0516
 -12.000  -0.1025   0.02564   0.02105  -0.1805   0.7761   0.0599
 -11.500  -0.0616   0.02637   0.02181  -0.1791   0.7765   0.0712
 -11.000  -0.0196   0.02706   0.02253  -0.1777   0.7772   0.0857
 -10.500   0.0235   0.02772   0.02325  -0.1765   0.7779   0.1045
 -10.000   0.0682   0.02835   0.02395  -0.1755   0.7789   0.1273
  -9.500   0.1153   0.02894   0.02463  -0.1748   0.7802   0.1570
  -9.000   0.1666   0.02954   0.02533  -0.1746   0.7818   0.1883
  -8.500   0.2377   0.03046   0.02637  -0.1772   0.7846   0.2271
  -8.000   0.3049   0.03171   0.02773  -0.1792   0.7856   0.2634
  -7.500   0.3585   0.03257   0.02868  -0.1791   0.7858   0.2975
  -7.000   0.4030   0.03274   0.02893  -0.1776   0.7856   0.3267
  -6.500   0.4128   0.03204   0.02828  -0.1709   0.7828   0.3460
  -6.000   0.4541   0.03223   0.02854  -0.1687   0.7800   0.3726
  -5.500   0.5116   0.03208   0.02848  -0.1688   0.7768   0.3992
  -5.000   0.6478   0.02692   0.02341  -0.1789   0.7589   0.4346
  -4.500   0.9622   0.00973   0.00579  -0.2188   0.7343   0.4800
  -4.000   1.0334   0.00820   0.00422  -0.2213   0.7347   0.4972
  -3.500   1.0935   0.00733   0.00336  -0.2217   0.7263   0.5121
  -3.000   1.0359   0.01044   0.00582  -0.1993   0.5165   0.5199
  -2.500   0.9823   0.01755   0.01275  -0.1829   0.4404   0.5269
  -2.000   0.9736   0.02103   0.01594  -0.1729   0.3659   0.5368
  -1.500   0.9906   0.02270   0.01730  -0.1665   0.2967   0.5470
  -1.000   1.0186   0.02379   0.01811  -0.1617   0.2324   0.5580
  -0.500   1.0528   0.02460   0.01865  -0.1579   0.1775   0.5678
  -0.000   1.0907   0.02524   0.01907  -0.1545   0.1335   0.5775
   0.500   1.1307   0.02581   0.01948  -0.1516   0.1014   0.5862
   1.000   1.1712   0.02642   0.01996  -0.1487   0.0773   0.5945
   1.500   1.2126   0.02703   0.02047  -0.1460   0.0609   0.6019
   2.000   1.2541   0.02765   0.02103  -0.1433   0.0485   0.6088
   2.500   1.2957   0.02828   0.02161  -0.1406   0.0406   0.6152
   3.000   1.3371   0.02894   0.02225  -0.1380   0.0343   0.6210
   3.500   1.3786   0.02963   0.02295  -0.1354   0.0306   0.6264
   4.000   1.4194   0.03037   0.02369  -0.1327   0.0272   0.6316
   4.500   1.4588   0.03119   0.02451  -0.1298   0.0237   0.6359
   5.000   1.4987   0.03200   0.02537  -0.1271   0.0221   0.6397
   5.500   1.5362   0.03299   0.02637  -0.1240   0.0198   0.6437
   6.000   1.5741   0.03396   0.02739  -0.1210   0.0186   0.6476
   6.500   1.6105   0.03502   0.02849  -0.1179   0.0172   0.6505
   7.000   1.6431   0.03636   0.02990  -0.1143   0.0158   0.6527
   7.500   1.6770   0.03761   0.03123  -0.1111   0.0151   0.6553
   8.000   1.7079   0.03908   0.03278  -0.1075   0.0143   0.6584
   8.500   1.7354   0.04082   0.03458  -0.1036   0.0135   0.6618
   9.000   1.7578   0.04297   0.03686  -0.0992   0.0127   0.6632
   9.500   1.7846   0.04477   0.03878  -0.0954   0.0123   0.6646
  10.000   1.8067   0.04695   0.04107  -0.0913   0.0118   0.6663
  10.500   1.8260   0.04938   0.04361  -0.0871   0.0113   0.6685
  11.000   1.8416   0.05218   0.04652  -0.0827   0.0108   0.6709
  11.500   1.8435   0.05634   0.05086  -0.0774   0.0103   0.6733
  12.000   1.8474   0.06043   0.05513  -0.0727   0.0100   0.6744
  12.500   1.8544   0.06434   0.05921  -0.0687   0.0099   0.6756
  13.000   1.8547   0.06914   0.06420  -0.0648   0.0097   0.6769
  13.500   1.8499   0.07481   0.07007  -0.0615   0.0094   0.6784
  14.000   1.8371   0.08202   0.07749  -0.0594   0.0093   0.6801
  14.500   1.8188   0.09088   0.08658  -0.0592   0.0091   0.6818
  15.000   1.7931   0.10176   0.09772  -0.0615   0.0090   0.6828
  15.500   1.7575   0.11490   0.11114  -0.0667   0.0089   0.6833
  16.000   1.7126   0.13038   0.12691  -0.0749   0.0088   0.6836
  16.500   1.6596   0.14823   0.14508  -0.0863   0.0088   0.6838
  17.000   1.6052   0.16726   0.16440  -0.1000   0.0088   0.6840
  17.500   1.5578   0.18594   0.18333  -0.1145   0.0088   0.6841
  18.000   1.5216   0.20295   0.20054  -0.1283   0.0087   0.6844
  18.500   1.4924   0.21896   0.21673  -0.1418   0.0086   0.6847
  19.000   1.4727   0.23296   0.23087  -0.1538   0.0084   0.6853
  19.500   1.4568   0.24648   0.24450  -0.1656   0.0081   0.6860
  21.500   0.8494   0.31742   0.31612  -0.1471   0.0052   0.6773
  22.000   0.8522   0.32344   0.32215  -0.1491   0.0047   0.6788
  22.500   0.8551   0.32863   0.32736  -0.1510   0.0044   0.6807
  23.000   0.8582   0.33314   0.33188  -0.1527   0.0043   0.6828
  23.500   0.8596   0.33964   0.33841  -0.1546   0.0041   0.6837
  24.000   0.8598   0.35009   0.34887  -0.1570   0.0036   0.6845
  24.500   0.8616   0.35599   0.35479  -0.1590   0.0032   0.6857
  25.000   0.8634   0.36119   0.36000  -0.1609   0.0030   0.6872
