  
       XFOIL         Version 6.99
  
 Calculated polar for: NACA 0012                                       
  
 1 1 Reynolds number fixed          Mach number fixed         
  
 xtrf =   1.000 (top)        1.000 (bottom)  
 Mach =   0.000     Re =     1.521 e 6     Ncrit =   9.000
  
   alpha    CL        CD       CDp       CM     Top_Xtr  Bot_Xtr
  ------ -------- --------- --------- -------- -------- --------
 -15.000  -0.2513   0.02215   0.01761  -0.2021   0.7736   0.0321
 -14.500  -0.2049   0.02234   0.01777  -0.2019   0.7737   0.0351
 -14.000  -0.1615   0.02264   0.01808  -0.2011   0.7737   0.0398
 -13.500  -0.1220   0.02318   0.01861  -0.1995   0.7737   0.0451
 -13.000  -0.0889   0.02405   0.01949  -0.1968   0.7736   0.0511
 -12.500  -0.0755   0.02558   0.02101  -0.1908   0.7734   0.0562
 -12.000  -0.0389   0.02660   0.02205  -0.1888   0.7735   0.0659
 -11.500  -0.0009   0.02752   0.02299  -0.1870   0.7738   0.0796
 -11.000   0.0364   0.02841   0.02394  -0.1850   0.7741   0.0957
 -10.500   0.0740   0.02928   0.02487  -0.1830   0.7746   0.1160
 -10.000   0.1128   0.03011   0.02577  -0.1811   0.7753   0.1403
  -9.000   0.1942   0.03169   0.02752  -0.1777   0.7771   0.1965
  -8.500   0.2380   0.03243   0.02835  -0.1763   0.7784   0.2277
  -8.000   0.2845   0.03315   0.02917  -0.1753   0.7800   0.2611
  -7.500   0.3344   0.03384   0.02994  -0.1747   0.7814   0.2920
  -7.000   0.3815   0.03409   0.03027  -0.1735   0.7796   0.3210
  -6.500   0.4348   0.03422   0.03049  -0.1731   0.7775   0.3510
  -6.000   0.4935   0.03425   0.03060  -0.1734   0.7757   0.3791
  -5.500   0.5731   0.03358   0.03001  -0.1766   0.7734   0.4069
  -5.000   0.6980   0.02836   0.02487  -0.1846   0.7532   0.4389
  -4.500   1.0360   0.00943   0.00546  -0.2293   0.7324   0.4841
  -4.000   1.1044   0.00803   0.00401  -0.2313   0.7308   0.5001
  -3.500   1.1203   0.00847   0.00416  -0.2229   0.6021   0.5122
  -3.000   1.0296   0.01555   0.01107  -0.1978   0.5096   0.5169
  -2.500   0.9748   0.02255   0.01783  -0.1814   0.4383   0.5241
  -2.000   0.9787   0.02489   0.01977  -0.1730   0.3508   0.5336
  -1.500   1.0064   0.02601   0.02059  -0.1683   0.2820   0.5451
  -1.000   1.0405   0.02673   0.02098  -0.1644   0.2157   0.5554
  -0.500   1.0776   0.02737   0.02137  -0.1610   0.1637   0.5654
   0.500   1.1565   0.02854   0.02217  -0.1548   0.0918   0.5833
   1.000   1.1980   0.02909   0.02261  -0.1521   0.0713   0.5912
   1.500   1.2396   0.02964   0.02308  -0.1494   0.0561   0.5988
   2.000   1.2819   0.03019   0.02357  -0.1468   0.0463   0.6054
   2.500   1.3239   0.03077   0.02414  -0.1442   0.0389   0.6118
   3.000   1.3654   0.03140   0.02472  -0.1416   0.0331   0.6178
   3.500   1.4065   0.03206   0.02537  -0.1388   0.0289   0.6230
   4.000   1.4471   0.03278   0.02612  -0.1361   0.0260   0.6277
   4.500   1.4864   0.03359   0.02693  -0.1332   0.0230   0.6322
   5.000   1.5258   0.03442   0.02779  -0.1304   0.0213   0.6367
   5.500   1.5627   0.03541   0.02882  -0.1272   0.0191   0.6402
   6.000   1.5997   0.03640   0.02987  -0.1242   0.0181   0.6432
   6.500   1.6347   0.03754   0.03105  -0.1209   0.0167   0.6464
   7.000   1.6668   0.03892   0.03250  -0.1172   0.0154   0.6501
   7.500   1.6998   0.04024   0.03389  -0.1139   0.0147   0.6530
   8.000   1.7303   0.04170   0.03544  -0.1102   0.0139   0.6548
   8.500   1.7568   0.04349   0.03731  -0.1062   0.0131   0.6566
   9.000   1.7796   0.04562   0.03956  -0.1018   0.0124   0.6586
   9.500   1.8033   0.04767   0.04173  -0.0978   0.0120   0.6612
  10.000   1.8254   0.04985   0.04401  -0.0937   0.0115   0.6644
  10.500   1.8447   0.05230   0.04657  -0.0895   0.0110   0.6660
  11.000   1.8565   0.05547   0.04988  -0.0848   0.0106   0.6671
  11.500   1.8579   0.05972   0.05431  -0.0795   0.0100   0.6683
  12.000   1.8598   0.06404   0.05882  -0.0748   0.0098   0.6696
  12.500   1.8636   0.06836   0.06332  -0.0708   0.0097   0.6715
  13.000   1.8623   0.07345   0.06859  -0.0670   0.0095   0.6736
  13.500   1.8550   0.07957   0.07491  -0.0640   0.0093   0.6757
  14.000   1.8407   0.08731   0.08287  -0.0624   0.0091   0.6765
  14.500   1.8197   0.09688   0.09270  -0.0630   0.0089   0.6772
  15.000   1.7912   0.10838   0.10446  -0.0662   0.0088   0.6779
  15.500   1.7539   0.12199   0.11835  -0.0723   0.0087   0.6786
  16.000   1.7082   0.13785   0.13451  -0.0814   0.0087   0.6791
  16.500   1.6560   0.15575   0.15272  -0.0935   0.0087   0.6794
  17.000   1.6041   0.17466   0.17191  -0.1077   0.0087   0.6796
  17.500   1.5596   0.19298   0.19047  -0.1223   0.0087   0.6799
  18.000   1.5254   0.20976   0.20746  -0.1363   0.0086   0.6803
  18.500   1.5014   0.22446   0.22232  -0.1489   0.0084   0.6809
  19.000   1.4795   0.23942   0.23743  -0.1620   0.0083   0.6814
  19.500   1.4632   0.25341   0.25154  -0.1743   0.0080   0.6821
  20.500   0.8564   0.30449   0.30320  -0.1462   0.0058   0.6706
  21.000   0.8581   0.31109   0.30981  -0.1481   0.0056   0.6723
  21.500   0.8574   0.32199   0.32073  -0.1509   0.0049   0.6737
  22.000   0.8600   0.32779   0.32654  -0.1528   0.0044   0.6759
  22.500   0.8628   0.33288   0.33165  -0.1546   0.0042   0.6768
  23.000   0.8654   0.33747   0.33626  -0.1563   0.0041   0.6779
  23.500   0.8663   0.34446   0.34326  -0.1582   0.0040   0.6790
  24.000   0.8665   0.35458   0.35340  -0.1606   0.0035   0.6801
  24.500   0.8681   0.36058   0.35943  -0.1625   0.0031   0.6819
  25.000   0.8696   0.36588   0.36473  -0.1643   0.0029   0.6838
