  
       XFOIL         Version 6.99
  
 Calculated polar for: NACA 0012                                       
  
 1 1 Reynolds number fixed          Mach number fixed         
  
 xtrf =   1.000 (top)        1.000 (bottom)  
 Mach =   0.000     Re =     2.332 e 6     Ncrit =   9.000
  
   alpha    CL        CD       CDp       CM     Top_Xtr  Bot_Xtr
  ------ -------- --------- --------- -------- -------- --------
 -15.000  -0.6558   0.01285   0.00771  -0.1444   0.7437   0.0196
 -14.500  -0.6010   0.01220   0.00702  -0.1454   0.7443   0.0215
 -14.000  -0.5454   0.01170   0.00652  -0.1463   0.7448   0.0234
 -13.500  -0.4896   0.01121   0.00601  -0.1472   0.7454   0.0259
 -13.000  -0.4333   0.01085   0.00564  -0.1480   0.7459   0.0283
 -12.500  -0.3770   0.01043   0.00524  -0.1488   0.7465   0.0328
 -12.000  -0.3203   0.01008   0.00491  -0.1496   0.7471   0.0377
 -11.500  -0.2634   0.00977   0.00463  -0.1504   0.7478   0.0443
 -11.000  -0.2062   0.00949   0.00439  -0.1512   0.7484   0.0525
 -10.500  -0.1490   0.00924   0.00419  -0.1519   0.7491   0.0635
 -10.000  -0.0917   0.00901   0.00403  -0.1527   0.7497   0.0779
  -9.500  -0.0343   0.00878   0.00389  -0.1534   0.7504   0.0985
  -9.000   0.0232   0.00858   0.00379  -0.1541   0.7511   0.1234
  -8.500   0.0807   0.00842   0.00375  -0.1547   0.7517   0.1530
  -8.000   0.1381   0.00830   0.00376  -0.1553   0.7523   0.1856
  -7.500   0.1954   0.00825   0.00383  -0.1559   0.7529   0.2214
  -7.000   0.2550   0.00781   0.00348  -0.1567   0.7522   0.2564
  -6.500   0.3157   0.00731   0.00303  -0.1576   0.7539   0.2916
  -6.000   0.3755   0.00691   0.00272  -0.1583   0.7540   0.3251
  -5.500   0.4353   0.00647   0.00236  -0.1590   0.7531   0.3573
  -5.000   0.4945   0.00613   0.00210  -0.1596   0.7512   0.3870
  -4.500   0.5534   0.00583   0.00186  -0.1600   0.7477   0.4130
  -4.000   0.6120   0.00557   0.00164  -0.1603   0.7432   0.4396
  -3.500   0.6699   0.00544   0.00158  -0.1606   0.7383   0.4625
  -3.000   0.7283   0.00517   0.00137  -0.1608   0.7299   0.4835
  -2.500   0.7610   0.00648   0.00199  -0.1562   0.5252   0.5011
  -1.500   0.8313   0.00822   0.00304  -0.1478   0.3323   0.5337
  -1.000   0.8628   0.00895   0.00355  -0.1428   0.2697   0.5486
  -0.500   0.8912   0.00973   0.00415  -0.1373   0.2173   0.5619
  -0.000   0.9261   0.01058   0.00482  -0.1333   0.1697   0.5742
   0.500   0.9646   0.01137   0.00546  -0.1300   0.1326   0.5858
   1.000   1.0046   0.01214   0.00611  -0.1271   0.1023   0.5969
   1.500   1.0465   0.01286   0.00672  -0.1245   0.0798   0.6060
   2.000   1.0890   0.01356   0.00734  -0.1221   0.0630   0.6156
   2.500   1.1326   0.01424   0.00795  -0.1198   0.0505   0.6230
   3.000   1.1762   0.01490   0.00859  -0.1176   0.0421   0.6310
   3.500   1.2197   0.01559   0.00923  -0.1153   0.0357   0.6372
   4.000   1.2631   0.01629   0.00992  -0.1130   0.0303   0.6434
   4.500   1.3065   0.01698   0.01060  -0.1108   0.0271   0.6490
   5.000   1.3490   0.01772   0.01134  -0.1084   0.0243   0.6533
   5.500   1.3906   0.01855   0.01216  -0.1060   0.0214   0.6578
   6.000   1.4324   0.01932   0.01296  -0.1036   0.0199   0.6619
   6.500   1.4724   0.02022   0.01386  -0.1009   0.0179   0.6656
   7.000   1.5119   0.02112   0.01481  -0.0983   0.0168   0.6686
   7.500   1.5504   0.02208   0.01580  -0.0955   0.0157   0.6711
   8.000   1.5862   0.02326   0.01701  -0.0924   0.0143   0.6737
   8.500   1.6225   0.02432   0.01812  -0.0894   0.0137   0.6766
   9.000   1.6572   0.02548   0.01933  -0.0863   0.0130   0.6790
   9.500   1.6897   0.02678   0.02068  -0.0830   0.0123   0.6806
  10.000   1.7162   0.02853   0.02252  -0.0790   0.0113   0.6822
  10.500   1.7464   0.02994   0.02401  -0.0756   0.0111   0.6841
  11.000   1.7728   0.03159   0.02575  -0.0718   0.0108   0.6863
  11.500   1.7980   0.03338   0.02762  -0.0680   0.0104   0.6883
  12.000   1.8188   0.03548   0.02981  -0.0640   0.0100   0.6897
  12.500   1.8366   0.03788   0.03231  -0.0598   0.0095   0.6911
  13.000   1.8443   0.04119   0.03578  -0.0549   0.0090   0.6924
  13.500   1.8573   0.04408   0.03880  -0.0509   0.0088   0.6942
  14.000   1.8696   0.04717   0.04201  -0.0471   0.0087   0.6958
  14.500   1.8782   0.05074   0.04571  -0.0435   0.0085   0.6970
  15.000   1.8807   0.05503   0.05016  -0.0400   0.0083   0.6980
  15.500   1.8777   0.06021   0.05550  -0.0370   0.0081   0.6993
  16.000   1.8695   0.06656   0.06202  -0.0351   0.0079   0.7006
  16.500   1.8530   0.07484   0.07052  -0.0350   0.0078   0.7017
  17.000   1.8263   0.08552   0.08143  -0.0373   0.0077   0.7024
  17.500   1.7851   0.09914   0.09531  -0.0424   0.0076   0.7029
  18.000   1.7262   0.11639   0.11287  -0.0508   0.0076   0.7031
  18.500   1.6511   0.13749   0.13430  -0.0632   0.0076   0.7030
  19.000   1.5650   0.16239   0.15956  -0.0802   0.0077   0.7028
  19.500   1.4854   0.18797   0.18545  -0.0995   0.0078   0.7026
  20.000   1.4304   0.21003   0.20775  -0.1172   0.0077   0.7026
  20.500   1.4034   0.22601   0.22386  -0.1302   0.0076   0.7028
  21.000   1.3834   0.24066   0.23863  -0.1424   0.0073   0.7031
  21.500   1.3722   0.25322   0.25128  -0.1531   0.0069   0.7038
  22.000   1.3555   0.26868   0.26689  -0.1660   0.0067   0.7042
  22.500   1.2764   0.33174   0.33012  -0.2081   0.0035   0.7019
