  
       XFOIL         Version 6.99
  
 Calculated polar for: NACA 0012                                       
  
 1 1 Reynolds number fixed          Mach number fixed         
  
 xtrf =   1.000 (top)        1.000 (bottom)  
 Mach =   0.000     Re =     1.521 e 6     Ncrit =   9.000
  
   alpha    CL        CD       CDp       CM     Top_Xtr  Bot_Xtr
  ------ -------- --------- --------- -------- -------- --------
 -15.000  -1.5924   0.03267   0.02800  -0.0046   0.9999   0.0116
 -14.500  -1.5815   0.02959   0.02479  -0.0015   0.9999   0.0120
 -14.000  -1.5642   0.02719   0.02227   0.0017   0.9999   0.0124
 -13.500  -1.5429   0.02519   0.02015   0.0050   0.9999   0.0129
 -13.000  -1.5174   0.02357   0.01841   0.0083   0.9999   0.0133
 -12.500  -1.4925   0.02196   0.01667   0.0120   0.9999   0.0138
 -12.000  -1.4692   0.02028   0.01489   0.0164   0.9999   0.0147
 -11.500  -1.4380   0.01914   0.01368   0.0200   0.9999   0.0154
 -11.000  -1.4027   0.01817   0.01264   0.0232   0.9999   0.0161
 -10.500  -1.3637   0.01716   0.01153   0.0257   0.9999   0.0170
 -10.000  -1.3232   0.01612   0.01046   0.0281   0.9999   0.0184
  -9.500  -1.2783   0.01538   0.00967   0.0298   0.9999   0.0197
  -9.000  -1.2341   0.01448   0.00873   0.0317   0.9999   0.0214
  -8.500  -1.1873   0.01377   0.00800   0.0331   0.9999   0.0232
  -8.000  -1.1401   0.01303   0.00724   0.0346   0.9999   0.0256
  -7.500  -1.0912   0.01244   0.00665   0.0358   0.9999   0.0282
  -7.000  -1.0428   0.01177   0.00599   0.0372   0.9999   0.0322
  -6.500  -0.9934   0.01118   0.00542   0.0384   0.9999   0.0370
  -6.000  -0.9438   0.01063   0.00491   0.0396   0.9999   0.0434
  -5.500  -0.8941   0.01010   0.00444   0.0408   0.9999   0.0519
  -5.000  -0.8342   0.00956   0.00398   0.0398   0.9877   0.0641
  -4.500  -0.7806   0.00954   0.00347   0.0404   0.7536   0.0830
  -4.000  -0.7287   0.00913   0.00309   0.0412   0.7306   0.1076
  -3.500  -0.6763   0.00870   0.00276   0.0418   0.7184   0.1403
  -3.000  -0.6241   0.00825   0.00245   0.0425   0.7084   0.1837
  -2.500  -0.5713   0.00780   0.00218   0.0431   0.6993   0.2338
  -2.000  -0.5183   0.00730   0.00193   0.0437   0.6892   0.2914
  -1.500  -0.4646   0.00685   0.00170   0.0442   0.6774   0.3510
  -1.000  -0.4109   0.00643   0.00149   0.0447   0.6626   0.4149
  -0.500  -0.3571   0.00604   0.00130   0.0452   0.6435   0.4829
  -0.000  -0.3037   0.00564   0.00113   0.0458   0.6206   0.5580
   0.500  -0.2535   0.00503   0.00091   0.0470   0.5934   0.6789
   1.000  -0.1994   0.00491   0.00095   0.0476   0.5627   0.7662
   1.500  -0.1423   0.00500   0.00097   0.0476   0.5282   0.7848
   2.000  -0.0851   0.00512   0.00099   0.0475   0.4901   0.7973
   2.500  -0.0276   0.00529   0.00104   0.0474   0.4503   0.8069
   3.000   0.0295   0.00546   0.00110   0.0473   0.4074   0.8155
   3.500   0.0869   0.00570   0.00119   0.0470   0.3624   0.8218
   4.000   0.1436   0.00593   0.00130   0.0469   0.3168   0.8289
   4.500   0.2004   0.00624   0.00145   0.0467   0.2693   0.8348
   5.500   0.3129   0.00694   0.00186   0.0465   0.1792   0.8466
   6.000   0.3688   0.00735   0.00212   0.0464   0.1406   0.8533
   6.500   0.4241   0.00775   0.00242   0.0464   0.1093   0.8616
   7.000   0.4795   0.00816   0.00275   0.0463   0.0855   0.8673
   7.500   0.5350   0.00862   0.00311   0.0462   0.0666   0.8717
   8.000   0.5901   0.00902   0.00350   0.0462   0.0546   0.8775
   8.500   0.6446   0.00947   0.00394   0.0462   0.0455   0.8847
   9.000   0.6988   0.00994   0.00441   0.0463   0.0388   0.8928
   9.500   0.7521   0.01043   0.00494   0.0466   0.0338   0.9038
  10.000   0.8042   0.01099   0.00555   0.0470   0.0297   0.9172
  10.500   0.8554   0.01153   0.00615   0.0476   0.0267   0.9332
  11.000   0.9053   0.01212   0.00684   0.0484   0.0244   0.9515
  11.500   0.9544   0.01282   0.00759   0.0493   0.0222   0.9698
  12.000   1.0083   0.01361   0.00845   0.0490   0.0206   0.9833
  12.500   1.0675   0.01445   0.00933   0.0473   0.0190   0.9910
  13.000   1.1259   0.01560   0.01056   0.0454   0.0176   0.9957
  13.500   1.1860   0.01657   0.01161   0.0432   0.0166   0.9992
  14.000   1.2254   0.01758   0.01267   0.0452   0.0157   1.0001
  14.500   1.2537   0.01919   0.01439   0.0486   0.0147   1.0001
  15.000   1.2921   0.02023   0.01553   0.0503   0.0143   1.0001
  15.500   1.3269   0.02154   0.01694   0.0522   0.0137   1.0001
  16.000   1.3533   0.02313   0.01864   0.0549   0.0132   1.0001
  16.500   1.3688   0.02539   0.02102   0.0577   0.0128   1.0001
  17.000   1.3739   0.02973   0.02555   0.0572   0.0123   1.0001
  17.500   1.3611   0.03765   0.03373   0.0528   0.0119   1.0001
  18.000   1.3566   0.04481   0.04110   0.0490   0.0118   1.0001
  18.500   1.3351   0.05461   0.05113   0.0437   0.0118   1.0001
  19.000   1.2944   0.06756   0.06433   0.0368   0.0117   1.0001
  19.500   1.2371   0.08367   0.08071   0.0284   0.0117   1.0001
  20.000   1.1753   0.10133   0.09862   0.0193   0.0117   1.0001
  20.500   1.1205   0.11863   0.11615   0.0103   0.0117   1.0001
  21.000   1.0778   0.13450   0.13220   0.0018   0.0117   1.0001
  21.500   1.0427   0.14965   0.14751  -0.0066   0.0116   1.0001
  22.000   1.0161   0.16381   0.16183  -0.0149   0.0114   1.0001
  22.500   0.9857   0.17976   0.17795  -0.0245   0.0112   1.0001
  24.500   0.5366   0.22861   0.22735  -0.0261   0.0079   1.0001
  25.000   0.5461   0.23278   0.23152  -0.0287   0.0076   1.0001
