  
       XFOIL         Version 6.99
  
 Calculated polar for: NACA 0012                                       
  
 1 1 Reynolds number fixed          Mach number fixed         
  
 xtrf =   1.000 (top)        1.000 (bottom)  
 Mach =   0.000     Re =     2.332 e 6     Ncrit =   9.000
  
   alpha    CL        CD       CDp       CM     Top_Xtr  Bot_Xtr
  ------ -------- --------- --------- -------- -------- --------
 -15.000  -0.7946   0.01306   0.00788  -0.1241   0.7586   0.0179
 -14.500  -0.7402   0.01250   0.00727  -0.1248   0.7592   0.0187
 -14.000  -0.6863   0.01176   0.00650  -0.1255   0.7598   0.0209
 -13.500  -0.6309   0.01128   0.00599  -0.1262   0.7604   0.0223
 -13.000  -0.5757   0.01070   0.00540  -0.1269   0.7610   0.0251
 -12.500  -0.5197   0.01027   0.00496  -0.1276   0.7616   0.0276
 -12.000  -0.4635   0.00983   0.00453  -0.1283   0.7622   0.0312
 -11.500  -0.4069   0.00942   0.00414  -0.1290   0.7629   0.0360
 -11.000  -0.3501   0.00906   0.00380  -0.1297   0.7635   0.0421
 -10.500  -0.2930   0.00872   0.00350  -0.1304   0.7642   0.0497
 -10.000  -0.2357   0.00841   0.00323  -0.1311   0.7648   0.0599
  -9.500  -0.1783   0.00810   0.00300  -0.1318   0.7655   0.0746
  -9.000  -0.1207   0.00782   0.00280  -0.1325   0.7662   0.0930
  -8.500  -0.0630   0.00754   0.00263  -0.1331   0.7668   0.1175
  -8.000  -0.0052   0.00730   0.00250  -0.1338   0.7674   0.1469
  -7.500   0.0528   0.00709   0.00241  -0.1345   0.7680   0.1802
  -7.000   0.1109   0.00685   0.00230  -0.1351   0.7680   0.2162
  -6.500   0.1695   0.00645   0.00200  -0.1356   0.7650   0.2529
  -6.000   0.2280   0.00614   0.00178  -0.1362   0.7620   0.2898
  -5.500   0.2864   0.00590   0.00163  -0.1367   0.7595   0.3256
  -5.000   0.3447   0.00577   0.00158  -0.1371   0.7564   0.3584
  -4.500   0.4029   0.00570   0.00160  -0.1375   0.7535   0.3893
  -4.000   0.4615   0.00542   0.00142  -0.1379   0.7510   0.4192
  -3.500   0.5200   0.00521   0.00130  -0.1382   0.7467   0.4463
  -3.000   0.5779   0.00509   0.00121  -0.1384   0.7400   0.4710
  -2.500   0.6365   0.00491   0.00114  -0.1388   0.7314   0.4936
  -2.000   0.6717   0.00623   0.00171  -0.1347   0.5121   0.5132
  -1.500   0.7139   0.00700   0.00211  -0.1319   0.4084   0.5318
  -1.000   0.7572   0.00764   0.00248  -0.1293   0.3316   0.5485
  -0.500   0.8000   0.00825   0.00286  -0.1266   0.2669   0.5641
  -0.000   0.8428   0.00885   0.00325  -0.1239   0.2115   0.5779
   0.500   0.8850   0.00945   0.00367  -0.1211   0.1647   0.5916
   1.000   0.9235   0.01003   0.00411  -0.1175   0.1268   0.6033
   1.500   0.9649   0.01063   0.00457  -0.1146   0.0975   0.6132
   2.000   1.0094   0.01120   0.00506  -0.1123   0.0774   0.6236
   2.500   1.0537   0.01182   0.00559  -0.1100   0.0602   0.6317
   3.000   1.0990   0.01239   0.00612  -0.1079   0.0499   0.6398
   3.500   1.1439   0.01299   0.00667  -0.1058   0.0415   0.6462
   4.000   1.1886   0.01361   0.00728  -0.1036   0.0353   0.6526
   4.500   1.2330   0.01427   0.00790  -0.1015   0.0303   0.6581
   5.000   1.2765   0.01497   0.00858  -0.0992   0.0262   0.6627
   5.500   1.3203   0.01563   0.00926  -0.0970   0.0241   0.6669
   6.000   1.3625   0.01642   0.01004  -0.0946   0.0214   0.6710
   6.500   1.4046   0.01716   0.01080  -0.0923   0.0197   0.6743
   7.000   1.4449   0.01807   0.01173  -0.0896   0.0178   0.6769
   7.500   1.4854   0.01889   0.01259  -0.0871   0.0168   0.6799
   8.000   1.5238   0.01987   0.01358  -0.0843   0.0156   0.6829
   8.500   1.5604   0.02095   0.01471  -0.0813   0.0144   0.6851
   9.000   1.5971   0.02196   0.01577  -0.0785   0.0138   0.6870
   9.500   1.6319   0.02311   0.01698  -0.0754   0.0130   0.6893
  10.000   1.6620   0.02458   0.01850  -0.0718   0.0120   0.6917
  10.500   1.6925   0.02600   0.02000  -0.0683   0.0116   0.6937
  11.000   1.7221   0.02741   0.02151  -0.0649   0.0112   0.6954
  11.500   1.7489   0.02903   0.02321  -0.0612   0.0108   0.6974
  12.000   1.7732   0.03084   0.02510  -0.0575   0.0104   0.6995
  12.500   1.7920   0.03306   0.02741  -0.0532   0.0099   0.7010
  13.000   1.8025   0.03597   0.03048  -0.0485   0.0093   0.7025
  13.500   1.8202   0.03834   0.03297  -0.0447   0.0092   0.7043
  14.000   1.8351   0.04106   0.03582  -0.0410   0.0090   0.7059
  14.500   1.8456   0.04426   0.03914  -0.0373   0.0088   0.7072
  15.000   1.8518   0.04800   0.04302  -0.0337   0.0086   0.7086
  15.500   1.8533   0.05245   0.04764  -0.0306   0.0084   0.7102
  16.000   1.8491   0.05782   0.05317  -0.0280   0.0082   0.7114
  16.500   1.8377   0.06481   0.06034  -0.0269   0.0080   0.7124
  17.000   1.8170   0.07410   0.06986  -0.0281   0.0079   0.7132
  17.500   1.7825   0.08631   0.08232  -0.0319   0.0077   0.7140
  18.000   1.7299   0.10213   0.09845  -0.0388   0.0077   0.7144
  18.500   1.6587   0.12190   0.11854  -0.0492   0.0077   0.7145
  19.000   1.5745   0.14528   0.14227  -0.0634   0.0078   0.7144
  19.500   1.4844   0.17189   0.16922  -0.0820   0.0079   0.7140
  20.000   1.4178   0.19553   0.19313  -0.0999   0.0080   0.7138
  20.500   1.3776   0.21449   0.21227  -0.1148   0.0078   0.7141
  21.000   1.3554   0.22961   0.22751  -0.1270   0.0076   0.7146
  21.500   1.3400   0.24325   0.24125  -0.1382   0.0072   0.7150
  22.500   1.2324   0.32333   0.32168  -0.1930   0.0038   0.7128
