  
       XFOIL         Version 6.99
  
 Calculated polar for: NACA 0012                                       
  
 1 1 Reynolds number fixed          Mach number fixed         
  
 xtrf =   1.000 (top)        1.000 (bottom)  
 Mach =   0.000     Re =     2.332 e 6     Ncrit =   9.000
  
   alpha    CL        CD       CDp       CM     Top_Xtr  Bot_Xtr
  ------ -------- --------- --------- -------- -------- --------
 -15.000  -1.8893   0.05903   0.05423   0.0425   0.6935   0.0081
 -14.500  -1.8879   0.05447   0.04951   0.0458   0.6922   0.0083
 -14.000  -1.8824   0.05056   0.04546   0.0495   0.6911   0.0085
 -13.500  -1.8728   0.04716   0.04192   0.0534   0.6901   0.0086
 -13.000  -1.8582   0.04428   0.03894   0.0572   0.6884   0.0087
 -12.500  -1.8523   0.04078   0.03526   0.0622   0.6866   0.0092
 -12.000  -1.8380   0.03804   0.03241   0.0667   0.6850   0.0097
 -11.500  -1.8173   0.03585   0.03013   0.0707   0.6836   0.0101
 -11.000  -1.7946   0.03388   0.02807   0.0747   0.6823   0.0105
 -10.500  -1.7680   0.03217   0.02627   0.0784   0.6809   0.0109
 -10.000  -1.7394   0.03063   0.02465   0.0819   0.6785   0.0111
  -9.500  -1.7130   0.02890   0.02283   0.0860   0.6763   0.0119
  -9.000  -1.6819   0.02749   0.02137   0.0895   0.6743   0.0127
  -8.500  -1.6486   0.02624   0.02007   0.0927   0.6723   0.0134
  -8.000  -1.6129   0.02517   0.01894   0.0957   0.6702   0.0139
  -7.500  -1.5778   0.02397   0.01770   0.0989   0.6674   0.0152
  -7.000  -1.5402   0.02295   0.01666   0.1018   0.6642   0.0164
  -6.500  -1.5011   0.02205   0.01572   0.1045   0.6610   0.0172
  -6.000  -1.4623   0.02108   0.01473   0.1073   0.6574   0.0192
  -5.500  -1.4209   0.02029   0.01392   0.1098   0.6538   0.0207
  -5.000  -1.3800   0.01945   0.01309   0.1124   0.6493   0.0234
  -4.500  -1.3377   0.01873   0.01234   0.1147   0.6443   0.0254
  -4.000  -1.2957   0.01796   0.01159   0.1172   0.6393   0.0294
  -3.500  -1.2531   0.01723   0.01089   0.1196   0.6334   0.0341
  -3.000  -1.2100   0.01655   0.01022   0.1219   0.6260   0.0398
  -2.500  -1.1669   0.01586   0.00958   0.1242   0.6198   0.0479
  -2.000  -1.1239   0.01518   0.00894   0.1266   0.6113   0.0580
  -1.500  -1.0815   0.01447   0.00830   0.1290   0.6033   0.0723
  -1.000  -1.0401   0.01373   0.00764   0.1316   0.5929   0.0923
  -0.500  -1.0003   0.01291   0.00696   0.1345   0.5835   0.1199
  -0.000  -0.9623   0.01203   0.00622   0.1377   0.5722   0.1548
   0.500  -0.9281   0.01103   0.00538   0.1415   0.5599   0.1983
   1.000  -0.8978   0.00996   0.00451   0.1462   0.5474   0.2496
   1.500  -0.8710   0.00897   0.00371   0.1518   0.5341   0.3057
   2.000  -0.8492   0.00815   0.00311   0.1588   0.5198   0.3721
   2.500  -0.8193   0.00721   0.00251   0.1640   0.5040   0.4658
   3.000  -0.8026   0.00524   0.00147   0.1718   0.4889   0.7248
   3.500  -0.7444   0.00548   0.00166   0.1716   0.4687   0.7342
   4.000  -0.6858   0.00587   0.00198   0.1713   0.4478   0.7395
   4.500  -0.6280   0.00593   0.00199   0.1711   0.4241   0.7439
   5.000  -0.5687   0.00628   0.00230   0.1706   0.3982   0.7474
   5.500  -0.5089   0.00659   0.00254   0.1699   0.3705   0.7464
   6.000  -0.4479   0.00713   0.00298   0.1690   0.3416   0.7424
   6.500  -0.3882   0.00747   0.00329   0.1683   0.3095   0.7446
   7.000  -0.3266   0.00825   0.00405   0.1674   0.2748   0.7489
   7.500  -0.2656   0.00889   0.00462   0.1664   0.2400   0.7517
   8.000  -0.2084   0.00894   0.00455   0.1659   0.2050   0.7512
   8.500  -0.1513   0.00900   0.00449   0.1653   0.1726   0.7505
   9.000  -0.0941   0.00912   0.00448   0.1647   0.1392   0.7497
   9.500  -0.0368   0.00925   0.00451   0.1641   0.1135   0.7490
  10.000   0.0204   0.00944   0.00459   0.1634   0.0892   0.7483
  10.500   0.0776   0.00961   0.00468   0.1626   0.0729   0.7476
  11.000   0.1347   0.00983   0.00483   0.1619   0.0589   0.7468
  11.500   0.1917   0.01008   0.00502   0.1611   0.0481   0.7461
  12.000   0.2486   0.01034   0.00524   0.1603   0.0408   0.7454
  12.500   0.3054   0.01063   0.00550   0.1595   0.0353   0.7447
  13.000   0.3621   0.01095   0.00581   0.1586   0.0316   0.7441
  13.500   0.4187   0.01134   0.00620   0.1577   0.0281   0.7435
  14.000   0.4748   0.01188   0.00674   0.1567   0.0246   0.7430
  14.500   0.5311   0.01232   0.00721   0.1557   0.0231   0.7425
  15.000   0.5864   0.01302   0.00793   0.1546   0.0204   0.7420
  15.500   0.6421   0.01356   0.00852   0.1536   0.0194   0.7417
  16.000   0.6969   0.01431   0.00930   0.1524   0.0180   0.7413
  16.500   0.7508   0.01523   0.01031   0.1510   0.0167   0.7410
  17.000   0.8049   0.01606   0.01121   0.1496   0.0159   0.7407
  17.500   0.8580   0.01711   0.01233   0.1480   0.0150   0.7404
  18.000   0.9091   0.01884   0.01418   0.1453   0.0137   0.7402
  18.500   0.9613   0.02024   0.01568   0.1426   0.0134   0.7400
  19.000   1.0111   0.02217   0.01772   0.1388   0.0129   0.7398
  19.500   1.0557   0.02490   0.02056   0.1332   0.0124   0.7395
  20.000   1.0846   0.02961   0.02539   0.1253   0.0119   0.7393
  20.500   1.0761   0.03660   0.03252   0.1193   0.0115   0.7390
  21.000   1.0526   0.04592   0.04203   0.1124   0.0113   0.7387
  21.500   1.0124   0.05789   0.05420   0.1045   0.0112   0.7384
  22.000   0.9601   0.07214   0.06866   0.0958   0.0111   0.7381
  22.500   0.9000   0.08825   0.08497   0.0866   0.0112   0.7378
  23.000   0.8436   0.10450   0.10140   0.0777   0.0112   0.7376
  23.500   0.7933   0.12058   0.11763   0.0691   0.0110   0.7373
  24.000   0.7656   0.13339   0.13055   0.0622   0.0109   0.7371
  24.500   0.7437   0.14568   0.14295   0.0554   0.0108   0.7369
  25.000   0.7261   0.15756   0.15493   0.0488   0.0107   0.7367
