  
       XFOIL         Version 6.99
  
 Calculated polar for: NACA 0012                                       
  
 1 1 Reynolds number fixed          Mach number fixed         
  
 xtrf =   1.000 (top)        1.000 (bottom)  
 Mach =   0.000     Re =     2.332 e 6     Ncrit =   9.000
  
   alpha    CL        CD       CDp       CM     Top_Xtr  Bot_Xtr
  ------ -------- --------- --------- -------- -------- --------
 -15.000  -0.2136   0.02465   0.02042  -0.2062   0.7551   0.0295
 -14.500  -0.1616   0.02468   0.02044  -0.2068   0.7551   0.0338
 -14.000  -0.1102   0.02482   0.02058  -0.2071   0.7551   0.0387
 -13.500  -0.0592   0.02502   0.02078  -0.2072   0.7551   0.0442
 -13.000  -0.0085   0.02526   0.02104  -0.2072   0.7551   0.0512
 -12.500   0.1030   0.01954   0.01535  -0.2174   0.7582   0.0671
 -12.000   0.1428   0.02021   0.01609  -0.2153   0.7583   0.0798
 -11.500   0.1726   0.02137   0.01732  -0.2116   0.7584   0.0940
 -11.000   0.1476   0.02533   0.02133  -0.1996   0.7582   0.1017
 -10.500   0.1699   0.02734   0.02339  -0.1954   0.7585   0.1188
 -10.000   0.1987   0.02888   0.02499  -0.1921   0.7591   0.1391
  -9.500   0.2295   0.03027   0.02645  -0.1890   0.7598   0.1633
  -9.000   0.2644   0.03146   0.02772  -0.1864   0.7607   0.1881
  -8.500   0.3033   0.03249   0.02884  -0.1843   0.7619   0.2168
  -8.000   0.3482   0.03321   0.02964  -0.1830   0.7626   0.2461
  -7.500   0.4078   0.03304   0.02957  -0.1836   0.7608   0.2785
  -7.000   0.4810   0.03227   0.02889  -0.1859   0.7590   0.3129
  -6.500   0.6194   0.02849   0.02523  -0.1969   0.7561   0.3552
  -6.000   0.6880   0.02499   0.02178  -0.1982   0.7448   0.3808
  -5.500   0.6514   0.03124   0.02809  -0.1855   0.7470   0.3909
  -5.000   1.0676   0.00755   0.00387  -0.2426   0.7267   0.4506
  -4.000   1.0541   0.01082   0.00641  -0.2179   0.5011   0.4737
  -3.500   0.9772   0.02033   0.01594  -0.1985   0.4524   0.4789
  -3.000   0.9600   0.02421   0.01956  -0.1872   0.3836   0.4883
  -2.500   0.9765   0.02598   0.02098  -0.1808   0.3069   0.4999
  -2.000   1.0080   0.02698   0.02175  -0.1767   0.2473   0.5128
  -1.500   1.0429   0.02775   0.02225  -0.1730   0.1899   0.5241
  -1.000   1.0822   0.02827   0.02257  -0.1700   0.1458   0.5352
  -0.500   1.1228   0.02874   0.02286  -0.1671   0.1096   0.5462
  -0.000   1.1636   0.02928   0.02325  -0.1643   0.0834   0.5548
   0.500   1.2054   0.02981   0.02370  -0.1616   0.0657   0.5650
   1.000   1.2473   0.03034   0.02414  -0.1590   0.0529   0.5726
   1.500   1.2895   0.03087   0.02463  -0.1564   0.0436   0.5814
   2.000   1.3315   0.03141   0.02513  -0.1538   0.0363   0.5885
   2.500   1.3736   0.03197   0.02567  -0.1512   0.0312   0.5953
   3.000   1.4153   0.03256   0.02625  -0.1486   0.0271   0.6020
   3.500   1.4563   0.03317   0.02683  -0.1458   0.0236   0.6072
   4.000   1.4973   0.03382   0.02750  -0.1432   0.0216   0.6131
   4.500   1.5368   0.03453   0.02822  -0.1402   0.0189   0.6183
   5.000   1.5767   0.03528   0.02900  -0.1375   0.0179   0.6229
   5.500   1.6150   0.03611   0.02983  -0.1345   0.0162   0.6267
   6.000   1.6522   0.03701   0.03077  -0.1314   0.0150   0.6312
   6.500   1.6888   0.03797   0.03178  -0.1282   0.0142   0.6350
   7.000   1.7235   0.03906   0.03290  -0.1249   0.0131   0.6385
   7.500   1.7561   0.04031   0.03421  -0.1213   0.0122   0.6413
   8.000   1.7893   0.04153   0.03550  -0.1179   0.0118   0.6446
   8.500   1.8202   0.04290   0.03693  -0.1143   0.0113   0.6472
   9.000   1.8486   0.04448   0.03857  -0.1104   0.0106   0.6497
   9.500   1.8695   0.04667   0.04086  -0.1058   0.0098   0.6521
  10.000   1.8935   0.04861   0.04290  -0.1017   0.0096   0.6547
  10.500   1.9167   0.05062   0.04501  -0.0976   0.0093   0.6567
  11.000   1.9365   0.05295   0.04743  -0.0934   0.0090   0.6583
  11.500   1.9514   0.05573   0.05033  -0.0888   0.0087   0.6597
  12.000   1.9657   0.05862   0.05332  -0.0845   0.0084   0.6611
  12.500   1.9720   0.06228   0.05712  -0.0797   0.0081   0.6625
  13.000   1.9720   0.06675   0.06175  -0.0749   0.0077   0.6640
  13.500   1.9626   0.07244   0.06764  -0.0701   0.0074   0.6657
  14.000   1.9601   0.07764   0.07300  -0.0666   0.0074   0.6676
  14.500   1.9508   0.08407   0.07961  -0.0639   0.0073   0.6686
  15.000   1.9358   0.09193   0.08768  -0.0627   0.0072   0.6693
  15.500   1.9138   0.10147   0.09745  -0.0636   0.0071   0.6698
  16.000   1.8832   0.11285   0.10908  -0.0668   0.0071   0.6703
  16.500   1.8444   0.12619   0.12269  -0.0729   0.0070   0.6706
  17.000   1.7954   0.14209   0.13889  -0.0825   0.0070   0.6709
  17.500   1.7344   0.16117   0.15828  -0.0961   0.0070   0.6711
  18.000   1.6595   0.18479   0.18224  -0.1151   0.0070   0.6709
  18.500   1.5949   0.20794   0.20568  -0.1351   0.0070   0.6708
  19.000   1.5480   0.22818   0.22615  -0.1532   0.0070   0.6709
  19.500   1.5226   0.24373   0.24185  -0.1672   0.0068   0.6712
  20.000   1.5064   0.25718   0.25543  -0.1794   0.0066   0.6716
  20.500   1.4942   0.26996   0.26831  -0.1911   0.0064   0.6720
  21.000   1.4839   0.28270   0.28115  -0.2027   0.0061   0.6725
  22.000   1.4240   0.36170   0.36036  -0.2611   0.0030   0.6705
  22.500   1.4351   0.36578   0.36446  -0.2656   0.0028   0.6713
  23.000   1.4458   0.36970   0.36840  -0.2701   0.0027   0.6722
  23.500   1.4558   0.37323   0.37195  -0.2745   0.0026   0.6731
  24.500   0.8757   0.36223   0.36123  -0.1661   0.0025   0.6699
  25.000   0.8765   0.37034   0.36935  -0.1680   0.0018   0.6705
