  
       XFOIL         Version 6.99
  
 Calculated polar for: NACA 0012                                       
  
 1 1 Reynolds number fixed          Mach number fixed         
  
 xtrf =   1.000 (top)        1.000 (bottom)  
 Mach =   0.000     Re =     1.521 e 6     Ncrit =   9.000
  
   alpha    CL        CD       CDp       CM     Top_Xtr  Bot_Xtr
  ------ -------- --------- --------- -------- -------- --------
 -15.000  -0.2764   0.03538   0.03097  -0.1931   0.7693   0.0311
 -14.500  -0.2201   0.03592   0.03150  -0.1949   0.7696   0.0358
 -14.000  -0.1657   0.03646   0.03201  -0.1961   0.7698   0.0408
 -13.500  -0.1123   0.03700   0.03254  -0.1969   0.7699   0.0468
 -13.000  -0.0592   0.03754   0.03307  -0.1975   0.7700   0.0546
 -12.500  -0.0062   0.03807   0.03362  -0.1981   0.7700   0.0659
 -12.000   0.0465   0.03861   0.03421  -0.1985   0.7701   0.0802
 -11.500   0.0988   0.03918   0.03481  -0.1987   0.7701   0.0969
 -11.000   0.1515   0.03973   0.03544  -0.1990   0.7702   0.1214
 -10.500   0.2039   0.04030   0.03609  -0.1991   0.7702   0.1496
 -10.000   0.2560   0.04089   0.03676  -0.1991   0.7702   0.1795
  -9.500   0.3079   0.04150   0.03746  -0.1990   0.7703   0.2110
  -9.000   0.3596   0.04213   0.03817  -0.1987   0.7703   0.2429
  -8.500   0.4193   0.03840   0.03451  -0.1998   0.7716   0.2758
  -8.000   0.4416   0.03923   0.03540  -0.1951   0.7724   0.2993
  -7.500   0.4866   0.03985   0.03611  -0.1937   0.7724   0.3264
  -6.500   0.6029   0.04466   0.04108  -0.1942   0.7703   0.3793
  -6.000   0.6487   0.04499   0.04147  -0.1927   0.7702   0.4005
  -5.500   0.6932   0.04517   0.04172  -0.1909   0.7701   0.4196
  -5.000   0.7345   0.04496   0.04158  -0.1887   0.7699   0.4376
  -4.500   0.7696   0.04040   0.03707  -0.1845   0.7507   0.4547
  -4.000   0.9579   0.02870   0.02541  -0.2014   0.7298   0.4842
  -3.500   0.9674   0.03153   0.02832  -0.1948   0.7225   0.4950
  -3.000   0.9677   0.03348   0.02922  -0.1868   0.5033   0.5057
  -2.500   0.9960   0.03434   0.02950  -0.1821   0.3866   0.5169
  -2.000   1.0314   0.03491   0.02963  -0.1785   0.2973   0.5277
  -1.500   1.0697   0.03537   0.02976  -0.1754   0.2274   0.5390
  -1.000   1.1112   0.03559   0.02967  -0.1726   0.1698   0.5484
  -0.500   1.1528   0.03593   0.02980  -0.1698   0.1255   0.5584
  -0.000   1.1939   0.03635   0.03002  -0.1670   0.0929   0.5667
   0.500   1.2360   0.03680   0.03038  -0.1644   0.0719   0.5752
   1.000   1.2777   0.03725   0.03072  -0.1617   0.0561   0.5823
   1.500   1.3197   0.03773   0.03116  -0.1590   0.0456   0.5897
   2.000   1.3616   0.03822   0.03161  -0.1564   0.0382   0.5963
   2.500   1.4032   0.03873   0.03208  -0.1537   0.0323   0.6020
   3.000   1.4446   0.03930   0.03267  -0.1510   0.0289   0.6078
   3.500   1.4850   0.03991   0.03330  -0.1481   0.0257   0.6131
   4.000   1.5242   0.04060   0.03396  -0.1451   0.0227   0.6178
   4.500   1.5633   0.04136   0.03479  -0.1422   0.0209   0.6222
   5.000   1.6003   0.04224   0.03568  -0.1390   0.0190   0.6259
   5.500   1.6364   0.04320   0.03671  -0.1357   0.0177   0.6299
   6.000   1.6716   0.04424   0.03780  -0.1324   0.0165   0.6338
   6.500   1.7033   0.04555   0.03915  -0.1287   0.0150   0.6369
   7.000   1.7345   0.04692   0.04062  -0.1250   0.0144   0.6392
   7.500   1.7647   0.04838   0.04216  -0.1212   0.0137   0.6414
   8.000   1.7925   0.05000   0.04387  -0.1173   0.0130   0.6442
   8.500   1.8148   0.05211   0.04607  -0.1128   0.0121   0.6474
   9.000   1.8362   0.05433   0.04842  -0.1083   0.0116   0.6503
   9.500   1.8560   0.05671   0.05093  -0.1039   0.0113   0.6517
  10.000   1.8734   0.05931   0.05367  -0.0995   0.0109   0.6529
  10.500   1.8897   0.06203   0.05650  -0.0951   0.0105   0.6542
  11.000   1.8986   0.06552   0.06013  -0.0904   0.0101   0.6557
  11.500   1.9009   0.06980   0.06458  -0.0855   0.0096   0.6575
  12.000   1.8865   0.07604   0.07105  -0.0801   0.0092   0.6593
  12.500   1.8860   0.08105   0.07624  -0.0764   0.0091   0.6618
  13.000   1.8789   0.08723   0.08262  -0.0734   0.0090   0.6635
  13.500   1.8659   0.09480   0.09042  -0.0718   0.0088   0.6643
  14.000   1.8461   0.10403   0.09990  -0.0723   0.0087   0.6650
  14.500   1.8200   0.11494   0.11108  -0.0751   0.0086   0.6657
  15.000   1.7872   0.12760   0.12402  -0.0808   0.0085   0.6663
  15.500   1.7468   0.14231   0.13902  -0.0895   0.0085   0.6667
  16.000   1.7009   0.15879   0.15580  -0.1009   0.0084   0.6671
  16.500   1.6524   0.17681   0.17410  -0.1149   0.0084   0.6673
  17.000   1.6084   0.19481   0.19234  -0.1297   0.0084   0.6676
  17.500   1.5731   0.21153   0.20928  -0.1441   0.0083   0.6679
  18.000   1.5447   0.22733   0.22527  -0.1581   0.0082   0.6683
  18.500   1.5240   0.24172   0.23982  -0.1710   0.0080   0.6689
  19.000   1.5033   0.25705   0.25530  -0.1850   0.0078   0.6694
  19.500   1.4845   0.27289   0.27128  -0.1994   0.0075   0.6698
  20.000   0.8751   0.31301   0.31182  -0.1552   0.0054   0.6573
  20.500   0.8783   0.31739   0.31622  -0.1567   0.0053   0.6596
  21.000   0.8791   0.32445   0.32328  -0.1585   0.0051   0.6619
  21.500   0.8785   0.33514   0.33399  -0.1611   0.0044   0.6633
  22.000   0.8803   0.34093   0.33979  -0.1629   0.0040   0.6640
  22.500   0.8821   0.34597   0.34486  -0.1646   0.0038   0.6650
  23.000   0.8839   0.35041   0.34932  -0.1663   0.0037   0.6662
  23.500   0.8841   0.35733   0.35626  -0.1680   0.0036   0.6674
  24.000   0.8841   0.36736   0.36631  -0.1702   0.0030   0.6684
  24.500   0.8849   0.37313   0.37209  -0.1720   0.0027   0.6700
  25.000   0.8856   0.37820   0.37717  -0.1737   0.0025   0.6718
