  
       XFOIL         Version 6.99
  
 Calculated polar for: NACA 0012                                       
  
 1 1 Reynolds number fixed          Mach number fixed         
  
 xtrf =   1.000 (top)        1.000 (bottom)  
 Mach =   0.000     Re =     1.521 e 6     Ncrit =   9.000
  
   alpha    CL        CD       CDp       CM     Top_Xtr  Bot_Xtr
  ------ -------- --------- --------- -------- -------- --------
 -15.000  -0.1092   0.04461   0.04036  -0.2115   0.7596   0.0394
 -14.500  -0.0647   0.04524   0.04097  -0.2115   0.7598   0.0447
 -14.000  -0.0198   0.04591   0.04162  -0.2112   0.7600   0.0507
 -13.500   0.0261   0.04659   0.04230  -0.2110   0.7602   0.0583
 -13.000   0.0731   0.04727   0.04300  -0.2109   0.7602   0.0698
 -12.500   0.1206   0.04798   0.04375  -0.2107   0.7603   0.0850
 -12.000   0.1682   0.04872   0.04455  -0.2104   0.7603   0.1031
 -11.500   0.2153   0.04949   0.04538  -0.2099   0.7603   0.1268
 -11.000   0.2614   0.05030   0.04627  -0.2091   0.7603   0.1524
 -10.500   0.3057   0.05114   0.04719  -0.2081   0.7604   0.1809
 -10.000   0.3475   0.05204   0.04815  -0.2065   0.7606   0.2061
  -9.500   0.3882   0.05295   0.04916  -0.2047   0.7609   0.2374
  -9.000   0.4276   0.05391   0.05017  -0.2027   0.7615   0.2606
  -8.500   0.4677   0.05487   0.05122  -0.2007   0.7622   0.2893
  -8.000   0.5140   0.05556   0.05197  -0.1995   0.7623   0.3144
  -7.500   0.5684   0.05590   0.05238  -0.1992   0.7614   0.3408
  -7.000   0.6228   0.05628   0.05283  -0.1990   0.7608   0.3647
  -6.500   0.6805   0.05661   0.05322  -0.1991   0.7601   0.3859
  -6.000   0.7511   0.05671   0.05339  -0.2010   0.7593   0.4085
  -5.500   0.8375   0.05625   0.05300  -0.2050   0.7585   0.4301
  -5.000   0.8751   0.05895   0.05578  -0.2021   0.7572   0.4456
  -4.500   0.9072   0.05339   0.05025  -0.1977   0.7401   0.4583
  -4.000   0.9913   0.04951   0.04643  -0.2009   0.7270   0.4762
  -3.500   1.0116   0.05057   0.04639  -0.1960   0.4878   0.4868
  -2.500   1.0999   0.05027   0.04499  -0.1917   0.2706   0.5098
  -2.000   1.1433   0.05030   0.04465  -0.1893   0.1984   0.5202
  -1.500   1.1877   0.05031   0.04439  -0.1871   0.1459   0.5301
  -1.000   1.2334   0.05022   0.04407  -0.1849   0.1060   0.5392
  -0.500   1.2762   0.05045   0.04416  -0.1824   0.0797   0.5478
  -0.000   1.3188   0.05074   0.04434  -0.1799   0.0612   0.5554
   0.500   1.3610   0.05109   0.04464  -0.1773   0.0494   0.5633
   1.000   1.4026   0.05147   0.04495  -0.1746   0.0407   0.5699
   1.500   1.4439   0.05188   0.04534  -0.1718   0.0345   0.5765
   2.000   1.4843   0.05230   0.04576  -0.1690   0.0296   0.5825
   2.500   1.5243   0.05275   0.04618  -0.1660   0.0256   0.5881
   3.000   1.5640   0.05330   0.04677  -0.1631   0.0234   0.5935
   3.500   1.6021   0.05385   0.04733  -0.1599   0.0207   0.5981
   4.000   1.6400   0.05455   0.04808  -0.1568   0.0193   0.6030
   4.500   1.6760   0.05531   0.04885  -0.1534   0.0176   0.6071
   5.000   1.7104   0.05620   0.04982  -0.1498   0.0164   0.6112
   5.500   1.7437   0.05722   0.05091  -0.1462   0.0154   0.6143
   6.000   1.7743   0.05844   0.05217  -0.1423   0.0143   0.6175
   6.500   1.8020   0.05990   0.05374  -0.1381   0.0134   0.6210
   7.000   1.8309   0.06134   0.05526  -0.1341   0.0128   0.6245
   7.500   1.8570   0.06297   0.05698  -0.1300   0.0121   0.6272
   8.000   1.8795   0.06491   0.05901  -0.1255   0.0115   0.6290
   8.500   1.8919   0.06778   0.06204  -0.1200   0.0107   0.6304
   9.000   1.9086   0.07036   0.06476  -0.1153   0.0105   0.6322
   9.500   1.9236   0.07310   0.06764  -0.1107   0.0102   0.6343
  10.000   1.9357   0.07619   0.07087  -0.1060   0.0099   0.6369
  10.500   1.9421   0.07996   0.07479  -0.1012   0.0096   0.6403
  11.000   1.9484   0.08381   0.07878  -0.0968   0.0092   0.6422
  11.500   1.9461   0.08873   0.08386  -0.0924   0.0089   0.6431
  12.000   1.9323   0.09527   0.09061  -0.0883   0.0086   0.6437
  12.500   1.9028   0.10460   0.10023  -0.0859   0.0083   0.6443
  13.000   1.8859   0.11300   0.10887  -0.0857   0.0082   0.6450
  13.500   1.8678   0.12214   0.11826  -0.0874   0.0082   0.6458
  14.000   1.8442   0.13259   0.12896  -0.0913   0.0081   0.6466
  14.500   1.8144   0.14466   0.14130  -0.0980   0.0080   0.6474
  15.000   1.7795   0.15837   0.15529  -0.1074   0.0080   0.6481
  15.500   1.7389   0.17395   0.17116  -0.1196   0.0079   0.6487
  16.000   1.6963   0.19077   0.18825  -0.1339   0.0079   0.6491
  16.500   1.6579   0.20732   0.20505  -0.1487   0.0079   0.6495
  17.000   1.6261   0.22319   0.22114  -0.1633   0.0078   0.6500
  17.500   1.5993   0.23859   0.23674  -0.1778   0.0077   0.6506
  18.000   1.5783   0.25310   0.25142  -0.1917   0.0075   0.6512
  18.500   1.5519   0.27074   0.26926  -0.2087   0.0073   0.6515
  19.500   1.4808   0.35104   0.34977  -0.2746   0.0047   0.6468
  20.000   1.4910   0.35459   0.35334  -0.2786   0.0046   0.6482
  21.000   1.5151   0.36924   0.36801  -0.2910   0.0037   0.6509
  21.500   1.5253   0.37340   0.37218  -0.2956   0.0033   0.6530
  22.000   1.5347   0.37699   0.37579  -0.3000   0.0032   0.6559
  22.500   1.5434   0.38038   0.37920  -0.3043   0.0031   0.6566
  23.000   1.5513   0.38285   0.38169  -0.3083   0.0030   0.6573
  24.000   1.5751   0.39478   0.39364  -0.3209   0.0023   0.6586
  24.500   1.5834   0.39747   0.39635  -0.3256   0.0021   0.6595
  25.000   1.5909   0.39979   0.39868  -0.3302   0.0020   0.6606
