  
       XFOIL         Version 6.99
  
 Calculated polar for: NACA 0012                                       
  
 1 1 Reynolds number fixed          Mach number fixed         
  
 xtrf =   1.000 (top)        1.000 (bottom)  
 Mach =   0.000     Re =     1.521 e 6     Ncrit =   9.000
  
   alpha    CL        CD       CDp       CM     Top_Xtr  Bot_Xtr
  ------ -------- --------- --------- -------- -------- --------
 -15.000  -0.6520   0.01449   0.00911  -0.1442   0.7575   0.0222
 -14.500  -0.5972   0.01385   0.00841  -0.1452   0.7584   0.0237
 -14.000  -0.5428   0.01305   0.00759  -0.1462   0.7592   0.0262
 -13.500  -0.4871   0.01260   0.00709  -0.1471   0.7599   0.0284
 -13.000  -0.4317   0.01200   0.00650  -0.1480   0.7607   0.0324
 -12.500  -0.3757   0.01154   0.00603  -0.1489   0.7615   0.0367
 -12.000  -0.3194   0.01116   0.00565  -0.1497   0.7623   0.0423
 -11.500  -0.2628   0.01080   0.00532  -0.1505   0.7632   0.0495
 -11.000  -0.2061   0.01047   0.00503  -0.1513   0.7642   0.0600
 -10.500  -0.1491   0.01018   0.00480  -0.1521   0.7652   0.0733
 -10.000  -0.0921   0.00991   0.00461  -0.1528   0.7662   0.0920
  -9.500  -0.0350   0.00969   0.00448  -0.1535   0.7672   0.1154
  -9.000   0.0220   0.00952   0.00441  -0.1542   0.7682   0.1447
  -8.500   0.0788   0.00941   0.00443  -0.1548   0.7690   0.1792
  -8.000   0.1354   0.00940   0.00456  -0.1553   0.7696   0.2158
  -7.000   0.2558   0.00836   0.00375  -0.1573   0.7744   0.2912
  -6.500   0.3143   0.00814   0.00363  -0.1579   0.7742   0.3258
  -6.000   0.3698   0.00841   0.00396  -0.1579   0.7698   0.3588
  -5.500   0.4303   0.00782   0.00344  -0.1586   0.7684   0.3902
  -5.000   0.4895   0.00744   0.00314  -0.1591   0.7660   0.4184
  -4.500   0.5485   0.00712   0.00288  -0.1595   0.7626   0.4452
  -4.000   0.6078   0.00679   0.00257  -0.1599   0.7580   0.4690
  -3.500   0.6655   0.00669   0.00253  -0.1600   0.7530   0.4913
  -3.000   0.7236   0.00628   0.00219  -0.1601   0.7464   0.5116
  -2.500   0.7810   0.00603   0.00198  -0.1601   0.7380   0.5299
  -2.000   0.8175   0.00674   0.00224  -0.1559   0.5798   0.5453
  -1.500   0.8392   0.00821   0.00314  -0.1491   0.4341   0.5586
  -1.000   0.8649   0.00919   0.00379  -0.1431   0.3510   0.5712
  -0.500   0.8860   0.01017   0.00454  -0.1362   0.2864   0.5835
  -0.000   0.9164   0.01122   0.00537  -0.1315   0.2277   0.5945
   1.000   0.9878   0.01318   0.00692  -0.1243   0.1350   0.6145
   1.500   1.0280   0.01401   0.00760  -0.1214   0.1033   0.6230
   2.000   1.0694   0.01481   0.00829  -0.1188   0.0798   0.6310
   2.500   1.1117   0.01558   0.00895  -0.1163   0.0628   0.6380
   3.000   1.1546   0.01632   0.00965  -0.1140   0.0505   0.6443
   3.500   1.1975   0.01708   0.01036  -0.1117   0.0422   0.6503
   4.000   1.2401   0.01786   0.01111  -0.1093   0.0358   0.6553
   4.500   1.2825   0.01866   0.01190  -0.1069   0.0315   0.6594
   5.000   1.3248   0.01945   0.01271  -0.1046   0.0281   0.6640
   5.500   1.3656   0.02036   0.01362  -0.1020   0.0250   0.6679
   6.000   1.4062   0.02124   0.01454  -0.0995   0.0230   0.6706
   6.500   1.4447   0.02231   0.01563  -0.0967   0.0208   0.6737
   7.000   1.4838   0.02326   0.01662  -0.0940   0.0194   0.6774
   7.500   1.5194   0.02449   0.01788  -0.0909   0.0177   0.6800
   8.000   1.5547   0.02568   0.01917  -0.0878   0.0168   0.6823
   8.500   1.5892   0.02690   0.02046  -0.0847   0.0159   0.6852
   9.000   1.6204   0.02836   0.02197  -0.0813   0.0149   0.6882
   9.500   1.6470   0.03016   0.02387  -0.0774   0.0140   0.6903
  10.000   1.6759   0.03169   0.02552  -0.0739   0.0135   0.6926
  10.500   1.7014   0.03350   0.02742  -0.0701   0.0129   0.6954
  11.000   1.7242   0.03551   0.02954  -0.0662   0.0124   0.6975
  11.500   1.7407   0.03805   0.03220  -0.0618   0.0118   0.6996
  12.000   1.7471   0.04151   0.03583  -0.0568   0.0113   0.7019
  12.500   1.7626   0.04426   0.03873  -0.0529   0.0111   0.7038
  13.000   1.7744   0.04743   0.04207  -0.0491   0.0108   0.7056
  13.500   1.7811   0.05124   0.04605  -0.0453   0.0105   0.7076
  14.000   1.7829   0.05570   0.05068  -0.0418   0.0103   0.7093
  14.500   1.7801   0.06101   0.05616  -0.0390   0.0100   0.7107
  15.000   1.7710   0.06766   0.06302  -0.0373   0.0098   0.7120
  15.500   1.7516   0.07674   0.07233  -0.0378   0.0096   0.7132
  16.000   1.7185   0.08907   0.08494  -0.0414   0.0094   0.7143
  16.500   1.6706   0.10467   0.10085  -0.0482   0.0093   0.7150
  17.000   1.6112   0.12302   0.11952  -0.0578   0.0093   0.7153
  17.500   1.5490   0.14268   0.13950  -0.0695   0.0093   0.7154
  18.000   1.4904   0.16288   0.15996  -0.0831   0.0094   0.7155
  18.500   1.4453   0.18108   0.17838  -0.0962   0.0093   0.7157
  19.000   1.4107   0.19790   0.19537  -0.1089   0.0091   0.7160
  19.500   1.3816   0.21423   0.21188  -0.1219   0.0089   0.7163
  20.000   1.3634   0.22854   0.22636  -0.1333   0.0088   0.7168
  20.500   1.3314   0.24837   0.24641  -0.1493   0.0086   0.7169
  22.000   0.7942   0.29496   0.29343  -0.1237   0.0059   0.7097
  22.500   0.7987   0.30059   0.29909  -0.1259   0.0054   0.7112
  23.000   0.8034   0.30543   0.30396  -0.1279   0.0052   0.7126
  23.500   0.8084   0.30965   0.30821  -0.1298   0.0050   0.7142
  24.000   0.8094   0.31825   0.31682  -0.1323   0.0050   0.7156
  24.500   0.8113   0.32726   0.32584  -0.1348   0.0042   0.7168
  25.000   0.8148   0.33288   0.33149  -0.1370   0.0038   0.7183
