  
       XFOIL         Version 6.99
  
 Calculated polar for: NACA 0012                                       
  
 1 1 Reynolds number fixed          Mach number fixed         
  
 xtrf =   1.000 (top)        1.000 (bottom)  
 Mach =   0.000     Re =     1.521 e 6     Ncrit =   9.000
  
   alpha    CL        CD       CDp       CM     Top_Xtr  Bot_Xtr
  ------ -------- --------- --------- -------- -------- --------
 -15.000  -1.7643   0.06823   0.06361   0.0369   0.7119   0.0098
 -14.500  -1.7742   0.06144   0.05661   0.0384   0.7106   0.0100
 -14.000  -1.7778   0.05601   0.05099   0.0413   0.7092   0.0103
 -13.500  -1.7767   0.05146   0.04628   0.0448   0.7075   0.0105
 -13.000  -1.7703   0.04762   0.04227   0.0485   0.7055   0.0108
 -12.500  -1.7590   0.04438   0.03886   0.0524   0.7038   0.0111
 -12.000  -1.7443   0.04157   0.03590   0.0563   0.7019   0.0113
 -11.500  -1.7370   0.03819   0.03234   0.0612   0.6995   0.0118
 -11.000  -1.7212   0.03558   0.02961   0.0657   0.6975   0.0124
 -10.500  -1.6988   0.03353   0.02746   0.0696   0.6954   0.0129
 -10.000  -1.6734   0.03173   0.02555   0.0734   0.6927   0.0135
  -9.500  -1.6447   0.03017   0.02389   0.0770   0.6903   0.0140
  -9.000  -1.6179   0.02841   0.02201   0.0808   0.6882   0.0149
  -8.500  -1.5870   0.02692   0.02048   0.0843   0.6852   0.0159
  -8.000  -1.5526   0.02571   0.01919   0.0874   0.6823   0.0168
  -7.500  -1.5171   0.02454   0.01793   0.0905   0.6800   0.0176
  -7.000  -1.4818   0.02328   0.01665   0.0936   0.6774   0.0194
  -6.500  -1.4427   0.02233   0.01566   0.0963   0.6737   0.0208
  -6.000  -1.4043   0.02126   0.01456   0.0991   0.6706   0.0230
  -5.500  -1.3637   0.02038   0.01364   0.1016   0.6679   0.0250
  -5.000  -1.3230   0.01947   0.01273   0.1042   0.6640   0.0282
  -4.500  -1.2808   0.01867   0.01192   0.1066   0.6594   0.0316
  -4.000  -1.2383   0.01788   0.01113   0.1090   0.6553   0.0359
  -3.500  -1.1959   0.01710   0.01038   0.1113   0.6504   0.0423
  -3.000  -1.1530   0.01634   0.00967   0.1137   0.6443   0.0505
  -2.500  -1.1101   0.01560   0.00897   0.1160   0.6380   0.0627
  -2.000  -1.0679   0.01482   0.00831   0.1185   0.6311   0.0800
  -1.500  -1.0266   0.01402   0.00761   0.1212   0.6230   0.1036
  -1.000  -0.9866   0.01318   0.00693   0.1240   0.6145   0.1357
  -0.500  -0.9493   0.01225   0.00617   0.1273   0.6046   0.1773
  -0.000  -0.9153   0.01123   0.00538   0.1313   0.5945   0.2280
   0.500  -0.8849   0.01018   0.00455   0.1359   0.5834   0.2862
   1.000  -0.8639   0.00919   0.00379   0.1428   0.5712   0.3509
   1.500  -0.8388   0.00821   0.00314   0.1491   0.5586   0.4346
   2.000  -0.8180   0.00670   0.00222   0.1560   0.5454   0.5833
   2.500  -0.7808   0.00602   0.00197   0.1600   0.5301   0.7378
   3.000  -0.7235   0.00628   0.00219   0.1601   0.5116   0.7464
   3.500  -0.6654   0.00669   0.00253   0.1600   0.4911   0.7530
   4.000  -0.6077   0.00679   0.00258   0.1599   0.4687   0.7581
   4.500  -0.5484   0.00711   0.00288   0.1595   0.4453   0.7626
   5.000  -0.4895   0.00744   0.00314   0.1591   0.4183   0.7659
   5.500  -0.4302   0.00782   0.00344   0.1586   0.3903   0.7684
   6.000  -0.3697   0.00840   0.00396   0.1579   0.3587   0.7698
   6.500  -0.3142   0.00814   0.00363   0.1579   0.3259   0.7742
   7.000  -0.2557   0.00836   0.00375   0.1573   0.2915   0.7745
   7.500  -0.1979   0.00848   0.00373   0.1567   0.2546   0.7731
   8.000  -0.1353   0.00940   0.00457   0.1553   0.2161   0.7696
   8.500  -0.0787   0.00942   0.00444   0.1548   0.1787   0.7690
   9.500   0.0351   0.00970   0.00448   0.1535   0.1152   0.7673
  10.000   0.0921   0.00991   0.00461   0.1528   0.0920   0.7663
  10.500   0.1492   0.01018   0.00480   0.1521   0.0733   0.7653
  11.000   0.2061   0.01047   0.00503   0.1513   0.0599   0.7643
  11.500   0.2628   0.01080   0.00532   0.1505   0.0496   0.7633
  12.000   0.3194   0.01115   0.00565   0.1497   0.0423   0.7624
  12.500   0.3757   0.01154   0.00603   0.1489   0.0367   0.7616
  13.000   0.4317   0.01200   0.00650   0.1480   0.0325   0.7608
  13.500   0.4871   0.01259   0.00709   0.1471   0.0284   0.7600
  14.000   0.5428   0.01305   0.00758   0.1462   0.0263   0.7593
  14.500   0.5972   0.01384   0.00840   0.1452   0.0237   0.7585
  15.000   0.6520   0.01447   0.00910   0.1442   0.0222   0.7577
  15.500   0.7051   0.01553   0.01021   0.1429   0.0201   0.7568
  16.000   0.7587   0.01648   0.01126   0.1417   0.0191   0.7556
  16.500   0.8116   0.01764   0.01252   0.1402   0.0180   0.7546
  17.000   0.8617   0.01934   0.01434   0.1380   0.0167   0.7540
  17.500   0.9108   0.02115   0.01630   0.1350   0.0161   0.7538
  18.000   0.9589   0.02326   0.01855   0.1311   0.0154   0.7536
  18.500   1.0012   0.02641   0.02184   0.1252   0.0147   0.7533
  19.000   1.0189   0.03169   0.02726   0.1181   0.0142   0.7531
  19.500   1.0117   0.03925   0.03498   0.1117   0.0139   0.7527
  20.000   0.9853   0.04925   0.04516   0.1046   0.0136   0.7524
  20.500   0.9475   0.06120   0.05731   0.0970   0.0135   0.7521
  21.000   0.9042   0.07449   0.07080   0.0890   0.0133   0.7518
  21.500   0.8707   0.08682   0.08328   0.0819   0.0133   0.7515
  22.000   0.8390   0.09927   0.09588   0.0750   0.0132   0.7512
  22.500   0.8121   0.11136   0.10810   0.0685   0.0131   0.7509
  23.000   0.7826   0.12435   0.12124   0.0616   0.0130   0.7506
  23.500   0.7569   0.13719   0.13421   0.0548   0.0128   0.7504
  24.000   0.7209   0.15299   0.15015   0.0466   0.0126   0.7501
  24.500   0.5380   0.21824   0.21559   0.0244   0.0106   0.7504
  25.000   0.5493   0.22867   0.22601   0.0192   0.0094   0.7503
