  
       XFOIL         Version 6.99
  
 Calculated polar for: NACA 0012                                       
  
 1 1 Reynolds number fixed          Mach number fixed         
  
 xtrf =   1.000 (top)        1.000 (bottom)  
 Mach =   0.000     Re =     2.332 e 6     Ncrit =   9.000
  
   alpha    CL        CD       CDp       CM     Top_Xtr  Bot_Xtr
  ------ -------- --------- --------- -------- -------- --------
 -15.000  -0.5864   0.01304   0.00796  -0.1546   0.7420   0.0205
 -14.500  -0.5311   0.01232   0.00721  -0.1557   0.7425   0.0230
 -14.000  -0.4748   0.01188   0.00674  -0.1567   0.7430   0.0245
 -13.500  -0.4187   0.01134   0.00620  -0.1577   0.7435   0.0279
 -13.000  -0.3622   0.01095   0.00581  -0.1586   0.7441   0.0314
 -12.500  -0.3054   0.01064   0.00551  -0.1594   0.7447   0.0351
 -12.000  -0.2486   0.01034   0.00524  -0.1603   0.7454   0.0408
 -11.500  -0.1917   0.01008   0.00502  -0.1611   0.7461   0.0481
 -11.000  -0.1347   0.00983   0.00483  -0.1619   0.7468   0.0591
 -10.500  -0.0776   0.00961   0.00468  -0.1626   0.7476   0.0729
 -10.000  -0.0203   0.00944   0.00459  -0.1634   0.7483   0.0892
  -9.500   0.0369   0.00925   0.00451  -0.1641   0.7490   0.1130
  -9.000   0.0941   0.00911   0.00448  -0.1647   0.7497   0.1409
  -8.500   0.1513   0.00900   0.00449  -0.1653   0.7505   0.1721
  -8.000   0.2085   0.00893   0.00455  -0.1659   0.7512   0.2061
  -7.500   0.2657   0.00889   0.00462  -0.1664   0.7517   0.2408
  -7.000   0.3267   0.00825   0.00404  -0.1674   0.7489   0.2748
  -6.500   0.3883   0.00747   0.00328  -0.1683   0.7446   0.3096
  -6.000   0.4480   0.00713   0.00298  -0.1690   0.7424   0.3413
  -4.500   0.6281   0.00594   0.00200  -0.1711   0.7442   0.4240
  -4.000   0.6859   0.00585   0.00196  -0.1713   0.7394   0.4476
  -3.500   0.7445   0.00549   0.00166  -0.1716   0.7344   0.4687
  -3.000   0.8027   0.00524   0.00147  -0.1718   0.7248   0.4890
  -2.500   0.8193   0.00722   0.00251  -0.1640   0.4643   0.5041
  -2.000   0.8502   0.00813   0.00310  -0.1590   0.3738   0.5197
  -1.500   0.8718   0.00897   0.00371  -0.1520   0.3054   0.5340
  -1.000   0.8981   0.00998   0.00451  -0.1463   0.2471   0.5475
  -0.500   0.9295   0.01100   0.00536  -0.1418   0.1991   0.5598
  -0.000   0.9634   0.01202   0.00621  -0.1379   0.1539   0.5722
   0.500   1.0016   0.01289   0.00694  -0.1348   0.1196   0.5836
   1.000   1.0415   0.01371   0.00762  -0.1319   0.0920   0.5931
   1.500   1.0830   0.01445   0.00828  -0.1293   0.0723   0.6033
   2.000   1.1254   0.01516   0.00892  -0.1269   0.0579   0.6113
   2.500   1.1685   0.01585   0.00956  -0.1245   0.0476   0.6199
   3.000   1.2116   0.01653   0.01019  -0.1222   0.0397   0.6261
   3.500   1.2548   0.01721   0.01086  -0.1199   0.0339   0.6334
   4.000   1.2975   0.01793   0.01156  -0.1175   0.0293   0.6394
   4.500   1.3395   0.01871   0.01231  -0.1151   0.0252   0.6443
   5.000   1.3819   0.01943   0.01306  -0.1127   0.0233   0.6493
   5.500   1.4229   0.02027   0.01389  -0.1102   0.0207   0.6538
   6.000   1.4643   0.02106   0.01470  -0.1077   0.0192   0.6575
   6.500   1.5032   0.02202   0.01568  -0.1049   0.0171   0.6610
   7.000   1.5423   0.02292   0.01662  -0.1022   0.0163   0.6642
   7.500   1.5798   0.02394   0.01766  -0.0993   0.0152   0.6674
   8.000   1.6151   0.02514   0.01890  -0.0961   0.0139   0.6702
   8.500   1.6509   0.02621   0.02003  -0.0931   0.0134   0.6723
   9.000   1.6842   0.02745   0.02133  -0.0899   0.0127   0.6743
   9.500   1.7153   0.02887   0.02280  -0.0864   0.0119   0.6763
  10.000   1.7419   0.03059   0.02461  -0.0824   0.0111   0.6786
  10.500   1.7704   0.03214   0.02624  -0.0788   0.0109   0.6809
  11.000   1.7972   0.03383   0.02802  -0.0751   0.0105   0.6823
  11.500   1.8199   0.03580   0.03008  -0.0711   0.0101   0.6836
  12.000   1.8409   0.03795   0.03233  -0.0671   0.0097   0.6851
  12.500   1.8559   0.04063   0.03511  -0.0627   0.0093   0.6867
  13.000   1.8609   0.04421   0.03886  -0.0577   0.0088   0.6885
  13.500   1.8766   0.04698   0.04174  -0.0539   0.0086   0.6901
  14.000   1.8867   0.05032   0.04522  -0.0501   0.0085   0.6912
  14.500   1.8921   0.05424   0.04928  -0.0464   0.0083   0.6923
  15.000   1.8930   0.05884   0.05404  -0.0430   0.0081   0.6936
  15.500   1.8895   0.06426   0.05962  -0.0402   0.0080   0.6948
  16.000   1.8772   0.07134   0.06689  -0.0386   0.0078   0.6958
  16.500   1.8581   0.08034   0.07609  -0.0392   0.0077   0.6967
  17.000   1.8280   0.09174   0.08773  -0.0422   0.0076   0.6975
  17.500   1.7823   0.10622   0.10249  -0.0480   0.0075   0.6980
  18.000   1.7203   0.12428   0.12086  -0.0575   0.0075   0.6981
  18.500   1.6426   0.14635   0.14328  -0.0713   0.0076   0.6981
  19.000   1.5555   0.17207   0.16936  -0.0899   0.0076   0.6978
  19.500   1.4842   0.19659   0.19417  -0.1091   0.0077   0.6976
  20.000   1.4406   0.21618   0.21396  -0.1251   0.0076   0.6978
  20.500   1.4110   0.23309   0.23101  -0.1392   0.0074   0.6981
  21.000   1.3950   0.24680   0.24483  -0.1508   0.0072   0.6986
  21.500   1.3834   0.25975   0.25787  -0.1618   0.0068   0.6991
  22.000   1.3686   0.27485   0.27311  -0.1745   0.0066   0.6994
  23.000   0.8148   0.30977   0.30848  -0.1327   0.0036   0.6924
  23.500   0.8190   0.31446   0.31318  -0.1347   0.0035   0.6937
  24.000   0.8210   0.32094   0.31968  -0.1369   0.0034   0.6950
  24.500   0.8231   0.32821   0.32696  -0.1391   0.0033   0.6960
  25.000   0.8247   0.33748   0.33625  -0.1414   0.0026   0.6969
