  
       XFOIL         Version 6.99
  
 Calculated polar for: NACA 0012                                       
  
 1 1 Reynolds number fixed          Mach number fixed         
  
 xtrf =   1.000 (top)        1.000 (bottom)  
 Mach =   0.000     Re =     2.332 e 6     Ncrit =   9.000
  
   alpha    CL        CD       CDp       CM     Top_Xtr  Bot_Xtr
  ------ -------- --------- --------- -------- -------- --------
 -15.000  -0.2728   0.01741   0.01303  -0.2004   0.7605   0.0278
 -14.500  -0.2197   0.01729   0.01291  -0.2012   0.7607   0.0312
 -14.000  -0.1673   0.01731   0.01293  -0.2016   0.7610   0.0346
 -13.500  -0.1158   0.01739   0.01304  -0.2018   0.7613   0.0395
 -13.000  -0.0654   0.01755   0.01323  -0.2018   0.7617   0.0463
 -12.500  -0.0159   0.01781   0.01353  -0.2015   0.7621   0.0545
 -12.000   0.0317   0.01821   0.01398  -0.2009   0.7625   0.0643
 -11.500   0.0758   0.01878   0.01461  -0.1997   0.7629   0.0786
 -11.000   0.1155   0.01960   0.01551  -0.1977   0.7634   0.0949
 -10.500   0.0912   0.02333   0.01927  -0.1857   0.7632   0.1006
 -10.000   0.1272   0.02457   0.02058  -0.1834   0.7641   0.1205
  -9.500   0.1712   0.02544   0.02153  -0.1822   0.7654   0.1458
  -9.000   0.2250   0.02607   0.02226  -0.1822   0.7672   0.1761
  -8.500   0.2861   0.02720   0.02350  -0.1830   0.7692   0.2101
  -8.000   0.3371   0.02815   0.02455  -0.1825   0.7695   0.2426
  -7.500   0.3787   0.02844   0.02492  -0.1807   0.7691   0.2709
  -7.000   0.4030   0.02823   0.02476  -0.1766   0.7649   0.2952
  -6.500   0.4584   0.02801   0.02464  -0.1765   0.7620   0.3241
  -6.000   0.7927   0.00976   0.00605  -0.2188   0.7335   0.3974
  -5.500   0.8513   0.00973   0.00601  -0.2192   0.7296   0.4178
  -5.000   0.9229   0.00787   0.00413  -0.2219   0.7274   0.4383
  -4.500   0.9906   0.00676   0.00298  -0.2239   0.7293   0.4586
  -3.500   0.9946   0.00959   0.00495  -0.2022   0.4618   0.4840
  -3.000   0.9694   0.01421   0.00942  -0.1894   0.3922   0.4924
  -2.500   0.9653   0.01803   0.01304  -0.1804   0.3281   0.5045
  -2.000   0.9798   0.02005   0.01483  -0.1738   0.2705   0.5159
  -1.500   1.0048   0.02136   0.01592  -0.1686   0.2164   0.5272
  -1.000   1.0366   0.02232   0.01667  -0.1644   0.1673   0.5397
  -0.500   1.0730   0.02309   0.01727  -0.1609   0.1296   0.5501
  -0.000   1.1118   0.02377   0.01781  -0.1578   0.0998   0.5605
   0.500   1.1521   0.02440   0.01832  -0.1549   0.0769   0.5699
   1.000   1.1931   0.02500   0.01883  -0.1521   0.0608   0.5788
   1.500   1.2347   0.02559   0.01935  -0.1495   0.0484   0.5871
   2.000   1.2769   0.02619   0.01990  -0.1469   0.0404   0.5950
   2.500   1.3189   0.02679   0.02047  -0.1443   0.0340   0.6013
   3.000   1.3609   0.02741   0.02107  -0.1418   0.0296   0.6085
   3.500   1.4026   0.02805   0.02171  -0.1392   0.0264   0.6142
   4.000   1.4438   0.02873   0.02239  -0.1365   0.0232   0.6197
   4.500   1.4846   0.02945   0.02311  -0.1339   0.0210   0.6252
   5.000   1.5246   0.03022   0.02390  -0.1311   0.0190   0.6300
   5.500   1.5639   0.03103   0.02472  -0.1283   0.0175   0.6337
   6.000   1.6017   0.03195   0.02567  -0.1252   0.0158   0.6382
   6.500   1.6397   0.03287   0.02663  -0.1223   0.0150   0.6419
   7.000   1.6760   0.03390   0.02769  -0.1192   0.0140   0.6456
   7.500   1.7095   0.03513   0.02896  -0.1157   0.0128   0.6482
   8.000   1.7440   0.03628   0.03018  -0.1125   0.0124   0.6514
   8.500   1.7758   0.03763   0.03160  -0.1090   0.0118   0.6538
   9.000   1.8046   0.03920   0.03322  -0.1052   0.0111   0.6564
   9.500   1.8290   0.04112   0.03522  -0.1010   0.0103   0.6589
  10.000   1.8554   0.04287   0.03707  -0.0971   0.0100   0.6612
  10.500   1.8798   0.04480   0.03910  -0.0931   0.0097   0.6631
  11.000   1.9002   0.04707   0.04147  -0.0889   0.0094   0.6645
  11.500   1.9195   0.04943   0.04393  -0.0847   0.0091   0.6659
  12.000   1.9338   0.05226   0.04686  -0.0802   0.0087   0.6675
  12.500   1.9438   0.05558   0.05031  -0.0756   0.0084   0.6690
  13.000   1.9426   0.06007   0.05498  -0.0705   0.0079   0.6706
  13.500   1.9438   0.06448   0.05954  -0.0661   0.0078   0.6726
  14.000   1.9461   0.06898   0.06419  -0.0624   0.0077   0.6738
  14.500   1.9420   0.07445   0.06984  -0.0591   0.0076   0.6745
  15.000   1.9312   0.08123   0.07681  -0.0568   0.0075   0.6751
  15.500   1.9140   0.08962   0.08541  -0.0563   0.0074   0.6757
  16.000   1.8901   0.09969   0.09570  -0.0579   0.0072   0.6763
  16.500   1.8564   0.11186   0.10813  -0.0620   0.0072   0.6770
  17.000   1.8109   0.12656   0.12311  -0.0692   0.0071   0.6775
  17.500   1.7555   0.14395   0.14080  -0.0800   0.0071   0.6778
  18.000   1.6831   0.16578   0.16297  -0.0959   0.0071   0.6777
  18.500   1.6033   0.19119   0.18872  -0.1165   0.0072   0.6774
  19.000   1.5419   0.21439   0.21220  -0.1364   0.0072   0.6773
  19.500   1.5101   0.23107   0.22904  -0.1510   0.0071   0.6777
  20.000   1.4839   0.24728   0.24541  -0.1654   0.0069   0.6781
  20.500   1.4699   0.26047   0.25871  -0.1772   0.0067   0.6787
  21.000   1.4593   0.27315   0.27148  -0.1885   0.0064   0.6793
  21.500   1.4501   0.28596   0.28438  -0.2001   0.0060   0.6799
  23.000   0.8594   0.33312   0.33200  -0.1532   0.0030   0.6739
  23.500   0.8621   0.33762   0.33652  -0.1550   0.0029   0.6747
  24.000   0.8624   0.34534   0.34426  -0.1571   0.0028   0.6753
  24.500   0.8631   0.35333   0.35227  -0.1592   0.0027   0.6760
  25.000   0.8644   0.36130   0.36024  -0.1612   0.0020   0.6767
