  
       XFOIL         Version 6.99
  
 Calculated polar for: NACA 0012                                       
  
 1 1 Reynolds number fixed          Mach number fixed         
  
 xtrf =   1.000 (top)        1.000 (bottom)  
 Mach =   0.000     Re =     1.521 e 6     Ncrit =   9.000
  
   alpha    CL        CD       CDp       CM     Top_Xtr  Bot_Xtr
  ------ -------- --------- --------- -------- -------- --------
 -15.000  -0.9856   0.01679   0.01143  -0.0948   0.7861   0.0170
 -14.500  -0.9385   0.01548   0.01003  -0.0949   0.7862   0.0186
 -14.000  -0.8874   0.01467   0.00916  -0.0952   0.7864   0.0198
 -13.500  -0.8358   0.01385   0.00825  -0.0955   0.7866   0.0210
 -12.500  -0.7298   0.01244   0.00674  -0.0962   0.7876   0.0249
 -12.000  -0.6762   0.01174   0.00602  -0.0965   0.7882   0.0278
 -11.500  -0.6215   0.01115   0.00540  -0.0969   0.7890   0.0309
 -11.000  -0.5661   0.01067   0.00491  -0.0974   0.7897   0.0345
 -10.500  -0.5106   0.01014   0.00439  -0.0978   0.7905   0.0400
 -10.000  -0.4546   0.00968   0.00395  -0.0983   0.7913   0.0471
  -9.500  -0.3982   0.00924   0.00355  -0.0988   0.7921   0.0564
  -9.000  -0.3417   0.00880   0.00319  -0.0993   0.7928   0.0708
  -8.500  -0.2847   0.00843   0.00289  -0.0998   0.7936   0.0876
  -8.000  -0.2277   0.00804   0.00262  -0.1004   0.7944   0.1126
  -7.500  -0.1704   0.00769   0.00240  -0.1009   0.7952   0.1431
  -7.000  -0.1131   0.00735   0.00222  -0.1015   0.7960   0.1804
  -6.500  -0.0554   0.00706   0.00208  -0.1020   0.7968   0.2210
  -6.000   0.0022   0.00674   0.00189  -0.1025   0.7945   0.2624
  -5.500   0.0597   0.00648   0.00172  -0.1028   0.7906   0.3034
  -5.000   0.1175   0.00634   0.00169  -0.1032   0.7873   0.3435
  -4.500   0.1755   0.00612   0.00160  -0.1036   0.7856   0.3812
  -4.000   0.2337   0.00591   0.00151  -0.1040   0.7832   0.4169
  -3.500   0.2919   0.00573   0.00144  -0.1043   0.7798   0.4500
  -3.000   0.3499   0.00558   0.00137  -0.1045   0.7753   0.4799
  -2.500   0.4078   0.00551   0.00136  -0.1047   0.7691   0.5078
  -2.000   0.4656   0.00534   0.00130  -0.1048   0.7615   0.5328
  -1.500   0.5230   0.00525   0.00127  -0.1048   0.7494   0.5557
  -1.000   0.5677   0.00593   0.00146  -0.1023   0.5884   0.5753
  -0.500   0.6115   0.00681   0.00189  -0.1000   0.4652   0.5926
  -0.000   0.6585   0.00745   0.00222  -0.0981   0.3807   0.6084
   0.500   0.7060   0.00804   0.00256  -0.0964   0.3099   0.6221
   1.000   0.7534   0.00866   0.00292  -0.0947   0.2462   0.6342
   1.500   0.8009   0.00930   0.00332  -0.0930   0.1901   0.6452
   2.000   0.8486   0.00992   0.00375  -0.0913   0.1449   0.6541
   2.500   0.8965   0.01056   0.00420  -0.0897   0.1089   0.6623
   3.500   0.9929   0.01176   0.00517  -0.0866   0.0657   0.6752
   4.000   1.0405   0.01238   0.00571  -0.0849   0.0523   0.6798
   4.500   1.0880   0.01297   0.00627  -0.0832   0.0436   0.6849
   5.000   1.1345   0.01359   0.00686  -0.0814   0.0371   0.6888
   5.500   1.1781   0.01422   0.00747  -0.0789   0.0321   0.6933
   6.000   1.2209   0.01480   0.00807  -0.0764   0.0290   0.6974
   6.500   1.2640   0.01552   0.00881  -0.0741   0.0259   0.7017
   7.000   1.3068   0.01623   0.00954  -0.0718   0.0235   0.7057
   7.500   1.3481   0.01701   0.01039  -0.0693   0.0215   0.7096
   8.000   1.3887   0.01782   0.01124  -0.0668   0.0199   0.7134
   8.500   1.4256   0.01887   0.01238  -0.0637   0.0183   0.7173
   9.000   1.4638   0.01977   0.01336  -0.0610   0.0174   0.7213
   9.500   1.4996   0.02082   0.01449  -0.0580   0.0163   0.7258
  10.000   1.5293   0.02232   0.01610  -0.0543   0.0151   0.7303
  11.500   1.6165   0.02607   0.02066  -0.0437   0.0134   0.9999
  12.000   1.6357   0.02832   0.02302  -0.0395   0.0126   0.9999
  12.500   1.6516   0.03082   0.02568  -0.0353   0.0122   0.9999
  13.000   1.6710   0.03311   0.02810  -0.0317   0.0119   0.9999
  13.500   1.6867   0.03572   0.03084  -0.0281   0.0115   0.9999
  14.000   1.6989   0.03871   0.03397  -0.0246   0.0112   0.9999
  14.500   1.7055   0.04231   0.03772  -0.0212   0.0108   0.9999
  15.000   1.7055   0.04686   0.04242  -0.0182   0.0105   0.9999
  15.500   1.6946   0.05303   0.04879  -0.0160   0.0103   0.9999
  16.000   1.6679   0.06254   0.05857  -0.0166   0.0100   0.9999
  16.500   1.6250   0.07627   0.07262  -0.0213   0.0098   0.9999
  17.000   1.5825   0.09094   0.08759  -0.0278   0.0098   0.9999
  17.500   1.5202   0.10952   0.10650  -0.0371   0.0098   0.9999
  18.500   1.3953   0.14906   0.14660  -0.0596   0.0098   0.9999
  19.000   1.3537   0.16614   0.16390  -0.0706   0.0098   0.9999
  19.500   1.3233   0.18154   0.17947  -0.0811   0.0098   0.9999
  20.000   1.3010   0.19568   0.19377  -0.0912   0.0097   0.9999
  20.500   1.2776   0.21099   0.20926  -0.1024   0.0096   0.9999
  21.000   1.2520   0.22806   0.22652  -0.1153   0.0093   0.9999
  22.000   0.7342   0.26488   0.26381  -0.0967   0.0076   0.9999
  22.500   0.7347   0.27461   0.27354  -0.0999   0.0065   0.9999
  23.000   0.7408   0.27962   0.27857  -0.1022   0.0061   0.9999
  23.500   0.7469   0.28425   0.28321  -0.1044   0.0059   0.9999
  24.000   0.7516   0.28984   0.28880  -0.1065   0.0057   0.9999
  24.500   0.7525   0.30007   0.29905  -0.1095   0.0052   0.9999
  25.000   0.7572   0.30598   0.30497  -0.1118   0.0046   0.9999
