  
       XFOIL         Version 6.99
  
 Calculated polar for: NACA 0012                                       
  
 1 1 Reynolds number fixed          Mach number fixed         
  
 xtrf =   1.000 (top)        1.000 (bottom)  
 Mach =   0.000     Re =     2.332 e 6     Ncrit =   9.000
  
   alpha    CL        CD       CDp       CM     Top_Xtr  Bot_Xtr
  ------ -------- --------- --------- -------- -------- --------
 -15.000  -1.4785   0.02013   0.01546  -0.0256   1.0000   0.0112
 -14.500  -1.4459   0.01874   0.01395  -0.0230   1.0000   0.0117
 -14.000  -1.4088   0.01751   0.01266  -0.0208   1.0000   0.0125
 -13.500  -1.3669   0.01656   0.01167  -0.0192   1.0000   0.0132
 -13.000  -1.3228   0.01574   0.01078  -0.0178   1.0000   0.0137
 -12.500  -1.2789   0.01485   0.00983  -0.0163   1.0000   0.0144
 -12.000  -1.2350   0.01398   0.00893  -0.0146   1.0000   0.0156
 -11.500  -1.1903   0.01332   0.00824  -0.0129   1.0000   0.0165
 -11.000  -1.1473   0.01268   0.00756  -0.0107   1.0000   0.0175
 -10.500  -1.1067   0.01204   0.00691  -0.0080   1.0000   0.0192
 -10.000  -1.0613   0.01154   0.00639  -0.0062   0.9997   0.0203
  -9.500  -1.0003   0.01086   0.00572  -0.0078   0.9980   0.0230
  -9.000  -0.9378   0.01031   0.00516  -0.0096   0.9961   0.0257
  -8.500  -0.8739   0.00980   0.00468  -0.0117   0.9945   0.0288
  -8.000  -0.8095   0.00926   0.00417  -0.0139   0.9914   0.0336
  -7.500  -0.7464   0.00877   0.00372  -0.0156   0.9852   0.0397
  -7.000  -0.6896   0.00832   0.00331  -0.0159   0.9749   0.0477
  -6.500  -0.6363   0.00789   0.00294  -0.0153   0.9611   0.0593
  -6.000  -0.5838   0.00752   0.00261  -0.0146   0.9443   0.0728
  -5.500  -0.5307   0.00714   0.00228  -0.0139   0.9263   0.0930
  -5.000  -0.4769   0.00678   0.00199  -0.0134   0.9073   0.1194
  -4.500  -0.4223   0.00644   0.00173  -0.0131   0.8881   0.1521
  -4.000  -0.3674   0.00609   0.00150  -0.0129   0.8682   0.1920
  -3.500  -0.3123   0.00579   0.00130  -0.0126   0.8471   0.2365
  -3.000  -0.2568   0.00553   0.00114  -0.0125   0.8252   0.2825
  -2.500  -0.2010   0.00529   0.00101  -0.0124   0.8016   0.3306
  -2.000  -0.1452   0.00511   0.00090  -0.0123   0.7731   0.3791
  -1.500  -0.0893   0.00498   0.00082  -0.0122   0.7323   0.4265
  -1.000  -0.0349   0.00504   0.00078  -0.0118   0.6524   0.4738
  -0.500   0.0204   0.00510   0.00078  -0.0116   0.5925   0.5190
  -0.000   0.0760   0.00516   0.00080  -0.0115   0.5369   0.5630
   0.500   0.1317   0.00524   0.00084  -0.0114   0.4838   0.6055
   1.000   0.1873   0.00538   0.00091  -0.0113   0.4297   0.6451
   1.500   0.2430   0.00557   0.00102  -0.0112   0.3775   0.6796
   2.000   0.2986   0.00580   0.00113  -0.0110   0.3255   0.7066
   2.500   0.3537   0.00602   0.00127  -0.0108   0.2759   0.7350
   3.000   0.4076   0.00622   0.00145  -0.0104   0.2269   0.7888
   3.500   0.4597   0.00639   0.00168  -0.0095   0.1821   0.8640
   4.000   0.5112   0.00666   0.00196  -0.0084   0.1443   0.9205
   4.500   0.5625   0.00703   0.00225  -0.0073   0.1117   0.9550
   5.000   0.6168   0.00744   0.00257  -0.0068   0.0868   0.9752
   5.500   0.6764   0.00788   0.00290  -0.0077   0.0681   0.9865
   6.000   0.7385   0.00835   0.00328  -0.0091   0.0536   0.9931
   6.500   0.8050   0.00882   0.00368  -0.0116   0.0439   0.9954
   7.000   0.8705   0.00931   0.00411  -0.0139   0.0364   0.9979
   7.500   0.9350   0.00982   0.00457  -0.0160   0.0311   0.9999
   8.000   0.9806   0.01028   0.00503  -0.0140   0.0276   1.0000
   8.500   1.0250   0.01082   0.00554  -0.0117   0.0241   1.0000
   9.000   1.0713   0.01128   0.00601  -0.0099   0.0225   1.0000
   9.500   1.1171   0.01192   0.00665  -0.0081   0.0201   1.0000
  10.000   1.1654   0.01245   0.00721  -0.0068   0.0189   1.0000
  10.500   1.2122   0.01319   0.00794  -0.0054   0.0170   1.0000
  11.000   1.2598   0.01384   0.00864  -0.0042   0.0162   1.0000
  11.500   1.3064   0.01456   0.00938  -0.0029   0.0152   1.0000
  12.000   1.3500   0.01551   0.01037  -0.0012   0.0140   1.0000
  12.500   1.3938   0.01636   0.01129   0.0004   0.0135   1.0000
  13.000   1.4364   0.01722   0.01221   0.0022   0.0129   1.0000
  13.500   1.4761   0.01820   0.01323   0.0042   0.0122   1.0000
  14.000   1.5091   0.01949   0.01459   0.0072   0.0115   1.0000
  14.500   1.5338   0.02088   0.01610   0.0114   0.0110   1.0000
  15.000   1.5606   0.02222   0.01753   0.0148   0.0108   1.0000
  15.500   1.5838   0.02389   0.01930   0.0180   0.0105   1.0000
  16.000   1.6036   0.02595   0.02148   0.0210   0.0102   1.0000
  16.500   1.6191   0.02857   0.02421   0.0234   0.0099   1.0000
  17.000   1.6288   0.03197   0.02774   0.0252   0.0096   1.0000
  17.500   1.6297   0.03668   0.03262   0.0260   0.0093   1.0000
  18.000   1.6164   0.04375   0.03989   0.0249   0.0090   1.0000
  18.500   1.5863   0.05410   0.05052   0.0209   0.0088   1.0000
  19.000   1.5482   0.06658   0.06327   0.0151   0.0088   1.0000
  19.500   1.4843   0.08378   0.08077   0.0064   0.0088   1.0000
  20.000   1.4026   0.10473   0.10204  -0.0043   0.0089   1.0000
  20.500   1.3188   0.12718   0.12479  -0.0163   0.0090   1.0000
  21.000   1.2414   0.14996   0.14784  -0.0294   0.0091   1.0000
  21.500   1.1859   0.16989   0.16798  -0.0418   0.0091   1.0000
  22.000   1.1476   0.18747   0.18572  -0.0535   0.0088   1.0000
  22.500   1.1325   0.20011   0.19848  -0.0621   0.0087   1.0000
  23.000   1.1200   0.21269   0.21117  -0.0709   0.0086   1.0000
  23.500   1.1074   0.22600   0.22459  -0.0803   0.0083   1.0000
  24.500   0.6356   0.25250   0.25152  -0.0612   0.0053   1.0000
  25.000   0.6437   0.25676   0.25580  -0.0637   0.0051   1.0000
