  
       XFOIL         Version 6.99
  
 Calculated polar for: NACA 0012                                       
  
 1 1 Reynolds number fixed          Mach number fixed         
  
 xtrf =   1.000 (top)        1.000 (bottom)  
 Mach =   0.000     Re =     1.521 e 6     Ncrit =   9.000
  
   alpha    CL        CD       CDp       CM     Top_Xtr  Bot_Xtr
  ------ -------- --------- --------- -------- -------- --------
 -15.000  -1.2919   0.02022   0.01552  -0.0504   1.0001   0.0143
 -14.500  -1.2536   0.01918   0.01439  -0.0486   1.0001   0.0147
 -14.000  -1.2254   0.01758   0.01267  -0.0452   1.0001   0.0157
 -13.500  -1.1859   0.01657   0.01161  -0.0433   0.9992   0.0166
 -13.000  -1.1258   0.01560   0.01056  -0.0454   0.9957   0.0176
 -12.500  -1.0674   0.01444   0.00933  -0.0473   0.9909   0.0190
 -12.000  -1.0082   0.01361   0.00845  -0.0490   0.9832   0.0206
 -11.000  -0.9051   0.01212   0.00684  -0.0485   0.9515   0.0244
 -10.500  -0.8553   0.01152   0.00615  -0.0476   0.9333   0.0267
 -10.000  -0.8040   0.01099   0.00555  -0.0470   0.9173   0.0297
  -9.500  -0.7520   0.01043   0.00494  -0.0466   0.9039   0.0338
  -9.000  -0.6987   0.00994   0.00441  -0.0463   0.8929   0.0388
  -8.500  -0.6446   0.00947   0.00394  -0.0462   0.8847   0.0456
  -8.000  -0.5900   0.00902   0.00350  -0.0462   0.8776   0.0547
  -7.500  -0.5349   0.00862   0.00311  -0.0462   0.8717   0.0666
  -7.000  -0.4795   0.00816   0.00275  -0.0463   0.8673   0.0854
  -6.500  -0.4241   0.00774   0.00242  -0.0464   0.8616   0.1094
  -6.000  -0.3687   0.00735   0.00212  -0.0464   0.8533   0.1408
  -5.500  -0.3128   0.00695   0.00186  -0.0465   0.8467   0.1785
  -5.000  -0.2569   0.00660   0.00163  -0.0465   0.8400   0.2223
  -4.500  -0.2004   0.00624   0.00145  -0.0467   0.8348   0.2690
  -4.000  -0.1436   0.00594   0.00130  -0.0469   0.8290   0.3162
  -3.500  -0.0868   0.00570   0.00119  -0.0470   0.8218   0.3626
  -3.000  -0.0294   0.00546   0.00110  -0.0473   0.8156   0.4068
  -2.500   0.0276   0.00529   0.00104  -0.0474   0.8069   0.4502
  -2.000   0.0851   0.00512   0.00099  -0.0475   0.7973   0.4902
  -1.500   0.1423   0.00499   0.00097  -0.0476   0.7848   0.5283
  -1.000   0.1994   0.00491   0.00096  -0.0476   0.7666   0.5628
  -0.500   0.2535   0.00503   0.00091  -0.0470   0.6784   0.5934
  -0.000   0.3037   0.00565   0.00113  -0.0458   0.5579   0.6206
   0.500   0.3571   0.00604   0.00130  -0.0452   0.4823   0.6435
   1.000   0.4109   0.00643   0.00149  -0.0447   0.4144   0.6626
   1.500   0.4647   0.00685   0.00170  -0.0442   0.3509   0.6774
   2.000   0.5183   0.00730   0.00193  -0.0437   0.2918   0.6892
   2.500   0.5714   0.00780   0.00218  -0.0432   0.2338   0.6993
   3.000   0.6242   0.00825   0.00245  -0.0426   0.1839   0.7084
   3.500   0.6764   0.00870   0.00276  -0.0419   0.1401   0.7183
   4.000   0.7288   0.00913   0.00309  -0.0412   0.1077   0.7305
   5.000   0.8343   0.00956   0.00398  -0.0398   0.0641   0.9878
   5.500   0.8941   0.01010   0.00443  -0.0408   0.0518   0.9999
   6.000   0.9438   0.01063   0.00491  -0.0396   0.0434   0.9999
   6.500   0.9935   0.01118   0.00542  -0.0384   0.0370   0.9999
   7.000   1.0429   0.01177   0.00599  -0.0372   0.0322   0.9999
   7.500   1.0914   0.01244   0.00665  -0.0359   0.0282   0.9999
   8.000   1.1403   0.01303   0.00724  -0.0347   0.0256   0.9999
   8.500   1.1875   0.01377   0.00800  -0.0332   0.0232   0.9999
   9.000   1.2344   0.01448   0.00873  -0.0317   0.0214   0.9999
   9.500   1.2786   0.01538   0.00967  -0.0298   0.0197   0.9999
  10.000   1.3236   0.01612   0.01046  -0.0281   0.0184   0.9999
  10.500   1.3641   0.01716   0.01154  -0.0258   0.0170   0.9999
  11.000   1.4033   0.01818   0.01264  -0.0233   0.0161   0.9999
  11.500   1.4389   0.01914   0.01368  -0.0202   0.0154   0.9999
  12.000   1.4702   0.02028   0.01489  -0.0166   0.0147   0.9999
  12.500   1.4935   0.02197   0.01668  -0.0122   0.0138   0.9999
  13.000   1.5187   0.02356   0.01841  -0.0085   0.0133   0.9999
  13.500   1.5445   0.02517   0.02013  -0.0053   0.0129   0.9999
  14.000   1.5658   0.02717   0.02225  -0.0019   0.0124   0.9999
  14.500   1.5834   0.02956   0.02476   0.0012   0.0120   0.9999
  15.000   1.5944   0.03264   0.02797   0.0042   0.0116   0.9999
  15.500   1.5921   0.03714   0.03265   0.0071   0.0112   0.9999
  16.000   1.5778   0.04339   0.03915   0.0087   0.0109   0.9999
  16.500   1.5736   0.04957   0.04553   0.0082   0.0108   0.9999
  17.000   1.5595   0.05813   0.05433   0.0055   0.0107   0.9999
  17.500   1.5305   0.06978   0.06625   0.0003   0.0106   0.9999
  18.000   1.4809   0.08533   0.08210  -0.0072   0.0106   0.9999
  18.500   1.4105   0.10490   0.10199  -0.0171   0.0106   0.9999
  19.000   1.3392   0.12555   0.12292  -0.0280   0.0107   0.9999
  19.500   1.2830   0.14446   0.14206  -0.0388   0.0107   0.9999
  20.000   1.2423   0.16112   0.15892  -0.0489   0.0106   0.9999
  20.500   1.2105   0.17687   0.17485  -0.0591   0.0105   0.9999
  21.000   1.1869   0.19141   0.18954  -0.0689   0.0103   0.9999
  21.500   1.1588   0.20816   0.20647  -0.0805   0.0101   0.9999
  22.500   1.0256   0.29385   0.29248  -0.1290   0.0070   0.9999
  23.000   1.0414   0.29848   0.29712  -0.1332   0.0068   0.9999
  24.000   1.0700   0.31499   0.31364  -0.1444   0.0062   0.9999
  24.500   1.0852   0.32117   0.31982  -0.1493   0.0055   0.9999
  25.000   1.1001   0.32629   0.32495  -0.1540   0.0052   0.9999
