  
       XFOIL         Version 6.99
  
 Calculated polar for: NACA 0012                                       
  
 1 1 Reynolds number fixed          Mach number fixed         
  
 xtrf =   1.000 (top)        1.000 (bottom)  
 Mach =   0.000     Re =     1.521 e 6     Ncrit =   9.000
  
   alpha    CL        CD       CDp       CM     Top_Xtr  Bot_Xtr
  ------ -------- --------- --------- -------- -------- --------
 -15.000  -0.3607   0.02073   0.01612  -0.1879   0.7822   0.0284
 -14.500  -0.3105   0.02066   0.01604  -0.1883   0.7827   0.0315
 -14.000  -0.2613   0.02077   0.01612  -0.1884   0.7833   0.0353
 -13.500  -0.2136   0.02119   0.01651  -0.1881   0.7840   0.0388
 -13.000  -0.1686   0.02205   0.01738  -0.1873   0.7851   0.0448
 -12.500  -0.1228   0.02302   0.01836  -0.1865   0.7857   0.0523
 -12.000  -0.0740   0.02359   0.01895  -0.1862   0.7859   0.0619
 -11.500  -0.0244   0.02406   0.01945  -0.1859   0.7860   0.0745
 -11.000   0.0257   0.02448   0.01994  -0.1857   0.7860   0.0928
 -10.000   0.1264   0.02539   0.02100  -0.1852   0.7861   0.1409
  -9.500   0.1771   0.02586   0.02157  -0.1849   0.7862   0.1714
  -9.000   0.2278   0.02636   0.02217  -0.1846   0.7862   0.2040
  -8.500   0.2785   0.02689   0.02280  -0.1842   0.7863   0.2382
  -8.000   0.3293   0.02745   0.02345  -0.1837   0.7863   0.2706
  -7.500   0.3809   0.02463   0.02074  -0.1835   0.7883   0.3027
  -7.000   0.4498   0.02446   0.02066  -0.1858   0.7881   0.3363
  -6.500   0.4639   0.02900   0.02527  -0.1792   0.7862   0.3580
  -6.000   0.4925   0.02994   0.02627  -0.1751   0.7860   0.3790
  -5.500   0.5264   0.03007   0.02646  -0.1719   0.7854   0.4014
  -5.000   0.8223   0.01147   0.00749  -0.2067   0.7407   0.4553
  -4.500   0.8924   0.00979   0.00582  -0.2089   0.7372   0.4758
  -4.000   0.9628   0.00822   0.00422  -0.2113   0.7371   0.4937
  -3.500   1.0251   0.00719   0.00315  -0.2120   0.7305   0.5102
  -3.000   1.0284   0.00855   0.00400  -0.2013   0.5540   0.5214
  -2.500   0.9841   0.01215   0.00730  -0.1829   0.4541   0.5299
  -2.000   0.9668   0.01697   0.01186  -0.1723   0.3775   0.5392
  -1.500   0.9769   0.01931   0.01394  -0.1650   0.3097   0.5499
  -1.000   1.0000   0.02073   0.01507  -0.1595   0.2479   0.5603
  -0.500   1.0301   0.02175   0.01585  -0.1550   0.1915   0.5706
  -0.000   1.0651   0.02256   0.01643  -0.1513   0.1455   0.5799
   0.500   1.1031   0.02327   0.01696  -0.1480   0.1100   0.5893
   1.000   1.1434   0.02391   0.01747  -0.1451   0.0842   0.5974
   1.500   1.1846   0.02454   0.01801  -0.1424   0.0660   0.6053
   2.000   1.2263   0.02517   0.01854  -0.1397   0.0530   0.6119
   2.500   1.2681   0.02581   0.01915  -0.1371   0.0437   0.6187
   3.000   1.3099   0.02649   0.01979  -0.1345   0.0369   0.6249
   3.500   1.3515   0.02718   0.02049  -0.1319   0.0322   0.6301
   4.000   1.3923   0.02794   0.02125  -0.1292   0.0282   0.6348
   4.500   1.4325   0.02875   0.02205  -0.1265   0.0250   0.6396
   5.000   1.4725   0.02959   0.02292  -0.1238   0.0229   0.6439
   5.500   1.5108   0.03054   0.02389  -0.1208   0.0207   0.6473
   6.000   1.5481   0.03156   0.02498  -0.1178   0.0192   0.6504
   6.500   1.5849   0.03263   0.02608  -0.1148   0.0178   0.6539
   7.000   1.6181   0.03398   0.02748  -0.1113   0.0162   0.6576
   7.500   1.6526   0.03518   0.02877  -0.1081   0.0155   0.6598
   8.000   1.6849   0.03655   0.03021  -0.1047   0.0147   0.6616
   8.500   1.7140   0.03818   0.03190  -0.1009   0.0138   0.6638
   9.000   1.7369   0.04030   0.03415  -0.0965   0.0130   0.6662
   9.500   1.7636   0.04209   0.03604  -0.0928   0.0126   0.6696
  10.000   1.7882   0.04405   0.03811  -0.0889   0.0120   0.6712
  10.500   1.8080   0.04643   0.04060  -0.0847   0.0115   0.6725
  11.000   1.8233   0.04923   0.04352  -0.0802   0.0110   0.6742
  11.500   1.8238   0.05345   0.04793  -0.0747   0.0104   0.6760
  12.000   1.8358   0.05674   0.05138  -0.0706   0.0103   0.6780
  12.500   1.8426   0.06062   0.05541  -0.0665   0.0101   0.6803
  13.000   1.8444   0.06514   0.06012  -0.0625   0.0098   0.6815
  13.500   1.8416   0.07045   0.06562  -0.0590   0.0096   0.6827
  14.000   1.8333   0.07687   0.07224  -0.0565   0.0094   0.6839
  14.500   1.8170   0.08514   0.08073  -0.0556   0.0092   0.6852
  15.000   1.7932   0.09545   0.09129  -0.0572   0.0091   0.6864
  15.500   1.7600   0.10807   0.10418  -0.0615   0.0090   0.6876
  16.000   1.7157   0.12319   0.11960  -0.0688   0.0089   0.6884
  16.500   1.6627   0.14076   0.13748  -0.0794   0.0089   0.6887
  17.000   1.6065   0.15986   0.15688  -0.0925   0.0089   0.6889
  17.500   1.5560   0.17886   0.17614  -0.1067   0.0089   0.6890
  18.000   1.5140   0.19702   0.19452  -0.1212   0.0088   0.6892
  18.500   1.4839   0.21314   0.21083  -0.1345   0.0087   0.6895
  19.000   1.4618   0.22768   0.22551  -0.1468   0.0085   0.6899
  19.500   1.4411   0.24251   0.24048  -0.1596   0.0082   0.6903
  21.000   1.3415   0.34175   0.34009  -0.2321   0.0051   0.6876
  21.500   1.3542   0.34677   0.34512  -0.2368   0.0048   0.6890
  22.000   1.3665   0.35115   0.34952  -0.2412   0.0046   0.6900
  22.500   1.3783   0.35523   0.35362  -0.2456   0.0045   0.6910
  23.000   1.3889   0.36003   0.35843  -0.2502   0.0043   0.6922
  23.500   1.4043   0.36996   0.36837  -0.2575   0.0039   0.6931
  24.000   1.4161   0.37496   0.37338  -0.2625   0.0034   0.6949
  24.500   1.4271   0.37928   0.37772  -0.2672   0.0032   0.6959
  25.000   1.4374   0.38318   0.38164  -0.2719   0.0031   0.6969
