  
       XFOIL         Version 6.99
  
 Calculated polar for: NACA 0012                                       
  
 1 1 Reynolds number fixed          Mach number fixed         
  
 xtrf =   1.000 (top)        1.000 (bottom)  
 Mach =   0.000     Re =     1.521 e 6     Ncrit =   9.000
  
   alpha    CL        CD       CDp       CM     Top_Xtr  Bot_Xtr
  ------ -------- --------- --------- -------- -------- --------
 -15.000  -1.7472   0.05887   0.05412   0.0296   0.7271   0.0100
 -14.500  -1.7530   0.05317   0.04824   0.0321   0.7245   0.0103
 -14.000  -1.7515   0.04863   0.04352   0.0352   0.7228   0.0106
 -13.500  -1.7455   0.04479   0.03953   0.0387   0.7210   0.0109
 -13.000  -1.7360   0.04145   0.03603   0.0425   0.7188   0.0112
 -12.500  -1.7218   0.03862   0.03303   0.0463   0.7163   0.0115
 -12.000  -1.7037   0.03623   0.03049   0.0501   0.7143   0.0117
 -11.500  -1.6951   0.03310   0.02718   0.0551   0.7122   0.0124
 -11.000  -1.6752   0.03091   0.02488   0.0592   0.7096   0.0130
 -10.500  -1.6498   0.02915   0.02301   0.0629   0.7073   0.0136
 -10.000  -1.6213   0.02759   0.02134   0.0664   0.7045   0.0142
  -9.500  -1.5896   0.02627   0.01992   0.0696   0.7018   0.0146
  -9.000  -1.5621   0.02452   0.01809   0.0735   0.6991   0.0159
  -8.500  -1.5280   0.02330   0.01680   0.0766   0.6960   0.0169
  -8.000  -1.4912   0.02226   0.01568   0.0794   0.6933   0.0177
  -7.500  -1.4562   0.02099   0.01436   0.0826   0.6900   0.0192
  -7.000  -1.4173   0.02002   0.01335   0.0853   0.6866   0.0208
  -6.500  -1.3777   0.01909   0.01236   0.0879   0.6841   0.0225
  -6.000  -1.3372   0.01817   0.01144   0.0905   0.6801   0.0249
  -5.500  -1.2955   0.01732   0.01056   0.0929   0.6765   0.0276
  -5.000  -1.2529   0.01655   0.00978   0.0952   0.6734   0.0307
  -4.500  -1.2101   0.01574   0.00900   0.0976   0.6689   0.0356
  -4.000  -1.1666   0.01500   0.00828   0.0998   0.6641   0.0415
  -3.500  -1.1228   0.01428   0.00759   0.1021   0.6595   0.0496
  -3.000  -1.0785   0.01360   0.00696   0.1042   0.6534   0.0600
  -2.500  -1.0350   0.01287   0.00633   0.1066   0.6469   0.0767
  -2.000  -0.9913   0.01219   0.00575   0.1089   0.6396   0.0977
  -1.500  -0.9494   0.01144   0.00514   0.1116   0.6311   0.1289
  -1.000  -0.9087   0.01070   0.00458   0.1145   0.6220   0.1689
  -0.500  -0.8738   0.00998   0.00405   0.1187   0.6114   0.2168
  -0.000  -0.8377   0.00924   0.00357   0.1227   0.6002   0.2754
   0.500  -0.7994   0.00850   0.00309   0.1263   0.5880   0.3440
   1.000  -0.7608   0.00773   0.00262   0.1298   0.5740   0.4263
   1.500  -0.7253   0.00669   0.00204   0.1339   0.5589   0.5471
   2.000  -0.6903   0.00564   0.00159   0.1382   0.5425   0.7393
   2.500  -0.6332   0.00583   0.00174   0.1383   0.5234   0.7506
   3.000  -0.5755   0.00597   0.00182   0.1382   0.5022   0.7569
   3.500  -0.5174   0.00618   0.00199   0.1381   0.4783   0.7628
   4.000  -0.4591   0.00643   0.00216   0.1378   0.4530   0.7672
   4.500  -0.4005   0.00673   0.00236   0.1375   0.4243   0.7696
   5.000  -0.3430   0.00670   0.00224   0.1372   0.3945   0.7729
   5.500  -0.2846   0.00687   0.00236   0.1368   0.3616   0.7761
   6.000  -0.2261   0.00717   0.00258   0.1364   0.3263   0.7796
   6.500  -0.1677   0.00756   0.00288   0.1359   0.2887   0.7834
   7.000  -0.1097   0.00773   0.00292   0.1353   0.2500   0.7832
   7.500  -0.0519   0.00790   0.00295   0.1347   0.2114   0.7822
   8.000   0.0058   0.00812   0.00303   0.1340   0.1740   0.7813
   8.500   0.0633   0.00839   0.00317   0.1334   0.1383   0.7803
   9.000   0.1208   0.00868   0.00334   0.1327   0.1094   0.7794
   9.500   0.1781   0.00899   0.00355   0.1320   0.0871   0.7784
  10.000   0.2352   0.00933   0.00381   0.1313   0.0693   0.7775
  10.500   0.2922   0.00968   0.00411   0.1306   0.0569   0.7766
  11.000   0.3489   0.01008   0.00446   0.1299   0.0473   0.7758
  11.500   0.4054   0.01051   0.00487   0.1292   0.0406   0.7749
  12.000   0.4616   0.01098   0.00534   0.1285   0.0352   0.7741
  12.500   0.5173   0.01154   0.00591   0.1278   0.0310   0.7733
  13.000   0.5727   0.01213   0.00650   0.1271   0.0278   0.7725
  13.500   0.6277   0.01274   0.00717   0.1264   0.0254   0.7717
  14.000   0.6816   0.01354   0.00800   0.1256   0.0229   0.7709
  14.500   0.7354   0.01430   0.00885   0.1249   0.0215   0.7702
  15.000   0.7883   0.01510   0.00971   0.1241   0.0200   0.7697
  15.500   0.8387   0.01623   0.01092   0.1233   0.0184   0.7695
  16.000   0.8900   0.01710   0.01188   0.1224   0.0176   0.7692
  16.500   0.9396   0.01820   0.01307   0.1214   0.0166   0.7690
  17.000   0.9839   0.02015   0.01515   0.1197   0.0155   0.7687
  17.500   1.0293   0.02208   0.01724   0.1173   0.0150   0.7683
  18.000   1.0719   0.02477   0.02009   0.1131   0.0145   0.7680
  18.500   1.0965   0.02945   0.02494   0.1065   0.0140   0.7676
  19.000   1.1018   0.03548   0.03112   0.1011   0.0136   0.7672
  19.500   1.0923   0.04327   0.03906   0.0955   0.0133   0.7668
  20.000   1.0658   0.05344   0.04942   0.0890   0.0131   0.7664
  20.500   1.0259   0.06596   0.06214   0.0814   0.0130   0.7660
  21.000   0.9780   0.08027   0.07666   0.0732   0.0130   0.7657
  21.500   0.9318   0.09490   0.09146   0.0652   0.0129   0.7654
  22.000   0.8897   0.10939   0.10611   0.0574   0.0128   0.7651
  22.500   0.8531   0.12351   0.12036   0.0499   0.0126   0.7648
  23.000   0.8244   0.13677   0.13375   0.0428   0.0124   0.7645
  23.500   0.8011   0.14975   0.14687   0.0358   0.0122   0.7643
  24.000   0.7601   0.16772   0.16501   0.0263   0.0120   0.7640
  25.000   0.3766   0.19277   0.19050   0.0320   0.0100   0.7664
