  
       XFOIL         Version 6.99
  
 Calculated polar for: NACA 0012                                       
  
 1 1 Reynolds number fixed          Mach number fixed         
  
 xtrf =   1.000 (top)        1.000 (bottom)  
 Mach =   0.000     Re =     2.332 e 6     Ncrit =   9.000
  
   alpha    CL        CD       CDp       CM     Top_Xtr  Bot_Xtr
  ------ -------- --------- --------- -------- -------- --------
 -15.000  -0.0555   0.04498   0.04109  -0.2186   0.7478   0.0370
 -14.500  -0.0029   0.04558   0.04169  -0.2196   0.7477   0.0426
 -14.000   0.0486   0.04625   0.04237  -0.2201   0.7476   0.0499
 -13.500   0.0979   0.04701   0.04315  -0.2203   0.7476   0.0588
 -13.000   0.1455   0.04783   0.04400  -0.2200   0.7476   0.0696
 -12.500   0.1909   0.04872   0.04492  -0.2194   0.7476   0.0836
 -12.000   0.2337   0.04968   0.04594  -0.2183   0.7477   0.1011
 -11.500   0.2729   0.05072   0.04704  -0.2166   0.7479   0.1198
 -11.000   0.3071   0.05181   0.04819  -0.2141   0.7481   0.1400
 -10.500   0.3403   0.05298   0.04943  -0.2114   0.7486   0.1644
 -10.000   0.3748   0.05416   0.05069  -0.2088   0.7493   0.1899
  -9.500   0.4125   0.05529   0.05190  -0.2067   0.7502   0.2158
  -9.000   0.4538   0.05631   0.05300  -0.2049   0.7512   0.2429
  -8.500   0.5032   0.05681   0.05357  -0.2041   0.7508   0.2689
  -8.000   0.5588   0.05695   0.05378  -0.2041   0.7497   0.2971
  -7.500   0.6173   0.05703   0.05393  -0.2043   0.7488   0.3227
  -7.000   0.6907   0.05674   0.05370  -0.2066   0.7478   0.3498
  -6.000   1.3747   0.01131   0.00771  -0.2938   0.6704   0.4455
  -4.000   0.9999   0.05239   0.04820  -0.2016   0.4243   0.4555
  -3.500   1.0413   0.05266   0.04798  -0.1992   0.3220   0.4665
  -3.000   1.0939   0.05190   0.04680  -0.1982   0.2362   0.4804
  -2.500   1.1393   0.05191   0.04655  -0.1962   0.1800   0.4920
  -2.000   1.1833   0.05201   0.04640  -0.1940   0.1316   0.5014
  -1.500   1.2280   0.05211   0.04632  -0.1918   0.0975   0.5133
  -0.500   1.3186   0.05223   0.04621  -0.1875   0.0579   0.5310
  -0.000   1.3615   0.05251   0.04640  -0.1850   0.0462   0.5385
   0.500   1.4039   0.05283   0.04667  -0.1825   0.0376   0.5471
   1.000   1.4460   0.05320   0.04701  -0.1799   0.0322   0.5545
   1.500   1.4875   0.05358   0.04738  -0.1772   0.0278   0.5607
   2.000   1.5282   0.05399   0.04778  -0.1744   0.0243   0.5679
   2.500   1.5683   0.05442   0.04819  -0.1715   0.0213   0.5735
   3.000   1.6081   0.05492   0.04871  -0.1686   0.0195   0.5788
   3.500   1.6466   0.05544   0.04923  -0.1655   0.0173   0.5850
   4.000   1.6847   0.05603   0.04987  -0.1623   0.0161   0.5899
   4.500   1.7217   0.05670   0.05054  -0.1591   0.0149   0.5939
   5.000   1.7566   0.05743   0.05131  -0.1555   0.0134   0.5988
   5.500   1.7915   0.05827   0.05221  -0.1521   0.0129   0.6032
   6.000   1.8249   0.05921   0.05320  -0.1485   0.0122   0.6072
   6.500   1.8559   0.06032   0.05434  -0.1446   0.0113   0.6107
   7.000   1.8842   0.06164   0.05573  -0.1404   0.0105   0.6138
   7.500   1.9131   0.06296   0.05714  -0.1364   0.0102   0.6174
   8.000   1.9395   0.06445   0.05871  -0.1322   0.0098   0.6203
   8.500   1.9635   0.06616   0.06050  -0.1279   0.0094   0.6232
   9.000   1.9825   0.06837   0.06279  -0.1231   0.0089   0.6259
   9.500   1.9942   0.07126   0.06581  -0.1177   0.0083   0.6283
  10.000   2.0096   0.07385   0.06852  -0.1129   0.0081   0.6305
  10.500   2.0242   0.07653   0.07132  -0.1084   0.0079   0.6328
  11.000   2.0327   0.07989   0.07481  -0.1035   0.0077   0.6344
  11.500   2.0412   0.08329   0.07834  -0.0990   0.0075   0.6360
  12.000   2.0421   0.08763   0.08283  -0.0943   0.0072   0.6376
  12.500   2.0403   0.09241   0.08776  -0.0901   0.0071   0.6391
  13.000   2.0329   0.09808   0.09359  -0.0865   0.0069   0.6407
  13.500   2.0195   0.10498   0.10068  -0.0840   0.0067   0.6424
  14.000   1.9991   0.11340   0.10931  -0.0833   0.0065   0.6441
  14.500   1.9698   0.12370   0.11986  -0.0850   0.0063   0.6451
  15.000   1.9333   0.13570   0.13215  -0.0899   0.0061   0.6459
  15.500   1.8888   0.14994   0.14670  -0.0985   0.0061   0.6465
  16.000   1.8475   0.16444   0.16148  -0.1092   0.0060   0.6469
  16.500   1.7963   0.18181   0.17915  -0.1238   0.0060   0.6471
  17.000   1.7304   0.20359   0.20127  -0.1439   0.0060   0.6469
  17.500   1.6736   0.22505   0.22301  -0.1645   0.0060   0.6468
  18.000   1.6401   0.24173   0.23988  -0.1807   0.0060   0.6470
  18.500   1.6151   0.25693   0.25526  -0.1957   0.0060   0.6473
  19.000   1.6004   0.26949   0.26796  -0.2081   0.0059   0.6478
  19.500   1.5881   0.28180   0.28040  -0.2203   0.0058   0.6481
  20.000   1.5753   0.29510   0.29383  -0.2336   0.0055   0.6484
  21.500   0.9095   0.35346   0.35264  -0.1773   0.0028   0.6372
  22.000   0.9089   0.36308   0.36227  -0.1792   0.0022   0.6383
  22.500   0.9092   0.36806   0.36726  -0.1807   0.0020   0.6400
  23.000   0.9093   0.37249   0.37171  -0.1823   0.0018   0.6419
  23.500   0.9093   0.37630   0.37553  -0.1837   0.0018   0.6440
  24.000   0.9075   0.38456   0.38380  -0.1854   0.0017   0.6454
  25.000   0.9058   0.39963   0.39891  -0.1886   0.0011   0.6475
