  
       XFOIL         Version 6.99
  
 Calculated polar for: NACA 0012                                       
  
 1 1 Reynolds number fixed          Mach number fixed         
  
 xtrf =   1.000 (top)        1.000 (bottom)  
 Mach =   0.000     Re =     2.332 e 6     Ncrit =   9.000
  
   alpha    CL        CD       CDp       CM     Top_Xtr  Bot_Xtr
  ------ -------- --------- --------- -------- -------- --------
 -15.000  -1.0668   0.01484   0.00966  -0.0842   0.7803   0.0148
 -14.500  -1.0163   0.01407   0.00884  -0.0843   0.7804   0.0158
 -14.000  -0.9642   0.01343   0.00815  -0.0845   0.7805   0.0164
 -13.500  -0.9130   0.01258   0.00725  -0.0846   0.7807   0.0180
 -13.000  -0.8599   0.01197   0.00661  -0.0849   0.7809   0.0194
 -12.500  -0.8063   0.01137   0.00597  -0.0851   0.7812   0.0209
 -12.000  -0.7521   0.01082   0.00541  -0.0854   0.7814   0.0232
 -11.500  -0.6974   0.01030   0.00487  -0.0857   0.7817   0.0257
 -11.000  -0.6420   0.00986   0.00443  -0.0861   0.7820   0.0281
 -10.500  -0.5865   0.00939   0.00397  -0.0865   0.7824   0.0326
 -10.000  -0.5305   0.00897   0.00357  -0.0868   0.7827   0.0377
  -9.500  -0.4742   0.00858   0.00321  -0.0873   0.7831   0.0443
  -9.000  -0.4175   0.00821   0.00288  -0.0877   0.7836   0.0531
  -8.500  -0.3606   0.00787   0.00259  -0.0882   0.7840   0.0646
  -8.000  -0.3036   0.00750   0.00232  -0.0886   0.7844   0.0817
  -7.500  -0.2464   0.00717   0.00208  -0.0891   0.7849   0.1032
  -7.000  -0.1890   0.00685   0.00187  -0.0896   0.7852   0.1308
  -6.500  -0.1316   0.00649   0.00165  -0.0900   0.7835   0.1642
  -6.000  -0.0740   0.00616   0.00145  -0.0904   0.7806   0.2008
  -5.500  -0.0163   0.00586   0.00129  -0.0909   0.7785   0.2419
  -5.000   0.0416   0.00561   0.00117  -0.0913   0.7762   0.2816
  -4.500   0.0996   0.00543   0.00108  -0.0917   0.7731   0.3198
  -4.000   0.1577   0.00526   0.00104  -0.0921   0.7700   0.3593
  -3.500   0.2161   0.00505   0.00096  -0.0925   0.7675   0.3965
  -3.000   0.2745   0.00488   0.00091  -0.0929   0.7631   0.4300
  -2.500   0.3325   0.00478   0.00087  -0.0931   0.7557   0.4610
  -2.000   0.3909   0.00465   0.00085  -0.0935   0.7464   0.4904
  -1.500   0.4409   0.00514   0.00097  -0.0922   0.6131   0.5175
  -1.000   0.4888   0.00587   0.00128  -0.0906   0.4871   0.5403
  -0.500   0.5398   0.00632   0.00150  -0.0896   0.4084   0.5629
  -0.000   0.5906   0.00678   0.00174  -0.0885   0.3378   0.5833
   0.500   0.6415   0.00724   0.00199  -0.0874   0.2763   0.6009
   1.000   0.6920   0.00773   0.00229  -0.0863   0.2198   0.6165
   1.500   0.7426   0.00823   0.00260  -0.0852   0.1709   0.6300
   2.000   0.7935   0.00873   0.00293  -0.0841   0.1316   0.6416
   2.500   0.8443   0.00923   0.00330  -0.0830   0.1009   0.6521
   3.000   0.8953   0.00971   0.00368  -0.0820   0.0784   0.6604
   3.500   0.9460   0.01022   0.00409  -0.0809   0.0611   0.6680
   4.000   0.9967   0.01070   0.00451  -0.0798   0.0500   0.6739
   4.500   1.0470   0.01121   0.00497  -0.0786   0.0415   0.6792
   5.000   1.0968   0.01174   0.00545  -0.0773   0.0353   0.6839
   5.500   1.1458   0.01226   0.00596  -0.0759   0.0304   0.6874
   6.000   1.1940   0.01284   0.00652  -0.0744   0.0266   0.6912
   6.500   1.2414   0.01343   0.00709  -0.0728   0.0237   0.6946
   7.000   1.2880   0.01399   0.00768  -0.0710   0.0216   0.6979
   7.500   1.3326   0.01466   0.00835  -0.0690   0.0194   0.7015
   8.000   1.3731   0.01525   0.00899  -0.0661   0.0182   0.7045
   8.500   1.4141   0.01593   0.00970  -0.0635   0.0169   0.7077
   9.000   1.4531   0.01680   0.01062  -0.0606   0.0154   0.7106
   9.500   1.4929   0.01754   0.01143  -0.0579   0.0147   0.7140
  10.000   1.5302   0.01844   0.01238  -0.0550   0.0139   0.7174
  10.500   1.5636   0.01961   0.01362  -0.0517   0.0128   0.7206
  11.500   1.6298   0.02186   0.01605  -0.0452   0.0119   0.7294
  12.000   1.6599   0.02317   0.01747  -0.0419   0.0114   0.7361
  12.500   1.6846   0.02423   0.01910  -0.0378   0.0109   0.9999
  13.000   1.7047   0.02631   0.02129  -0.0337   0.0102   0.9999
  13.500   1.7255   0.02837   0.02346  -0.0299   0.0099   0.9999
  14.000   1.7458   0.03046   0.02567  -0.0264   0.0098   0.9999
  14.500   1.7624   0.03292   0.02824  -0.0228   0.0095   0.9999
  15.000   1.7749   0.03576   0.03119  -0.0193   0.0093   0.9999
  15.500   1.7834   0.03907   0.03464  -0.0159   0.0090   0.9999
  16.000   1.7872   0.04303   0.03873  -0.0129   0.0088   0.9999
  16.500   1.7845   0.04801   0.04386  -0.0105   0.0086   0.9999
  17.000   1.7720   0.05478   0.05082  -0.0095   0.0083   0.9999
  17.500   1.7478   0.06445   0.06073  -0.0114   0.0081   0.9999
  18.000   1.7073   0.07765   0.07423  -0.0163   0.0080   0.9999
  18.500   1.6480   0.09460   0.09149  -0.0241   0.0080   0.9999
  19.000   1.5741   0.11473   0.11195  -0.0343   0.0081   0.9999
  19.500   1.4890   0.13805   0.13561  -0.0477   0.0082   0.9999
  20.000   1.4047   0.16293   0.16081  -0.0636   0.0083   0.9999
  20.500   1.3393   0.18588   0.18401  -0.0798   0.0084   0.9999
  21.000   1.2992   0.20448   0.20280  -0.0935   0.0082   0.9999
  21.500   1.2763   0.21964   0.21808  -0.1051   0.0079   0.9999
  22.000   1.2654   0.23212   0.23068  -0.1147   0.0078   0.9999
  22.500   1.2540   0.24523   0.24390  -0.1248   0.0076   0.9999
