  
       XFOIL         Version 6.99
  
 Calculated polar for: NACA 0012                                       
  
 1 1 Reynolds number fixed          Mach number fixed         
  
 xtrf =   1.000 (top)        1.000 (bottom)  
 Mach =   0.000     Re =     1.521 e 6     Ncrit =   9.000
  
   alpha    CL        CD       CDp       CM     Top_Xtr  Bot_Xtr
  ------ -------- --------- --------- -------- -------- --------
 -15.000  -1.2453   0.01939   0.01473  -0.0564   1.0001   0.0147
 -14.500  -1.1916   0.01791   0.01313  -0.0583   0.9941   0.0155
 -14.000  -1.1382   0.01651   0.01164  -0.0598   0.9816   0.0166
 -13.500  -1.0885   0.01558   0.01061  -0.0598   0.9592   0.0176
 -13.000  -1.0425   0.01485   0.00974  -0.0586   0.9326   0.0183
 -12.500  -0.9975   0.01385   0.00860  -0.0574   0.9089   0.0201
 -12.000  -0.9474   0.01324   0.00787  -0.0569   0.8921   0.0216
 -11.500  -0.8973   0.01246   0.00700  -0.0565   0.8799   0.0236
 -11.000  -0.8451   0.01189   0.00635  -0.0563   0.8708   0.0257
 -10.500  -0.7926   0.01124   0.00566  -0.0562   0.8642   0.0288
 -10.000  -0.7391   0.01073   0.00508  -0.0561   0.8586   0.0321
  -9.500  -0.6847   0.01024   0.00457  -0.0561   0.8544   0.0362
  -9.000  -0.6301   0.00972   0.00407  -0.0562   0.8514   0.0424
  -8.500  -0.5749   0.00926   0.00363  -0.0564   0.8485   0.0500
  -8.000  -0.5196   0.00879   0.00321  -0.0565   0.8460   0.0623
  -7.500  -0.4639   0.00837   0.00285  -0.0567   0.8438   0.0776
  -7.000  -0.4080   0.00795   0.00252  -0.0569   0.8417   0.0994
  -6.000  -0.2956   0.00715   0.00196  -0.0573   0.8346   0.1627
  -5.500  -0.2395   0.00675   0.00172  -0.0575   0.8295   0.2049
  -5.000  -0.1830   0.00642   0.00153  -0.0577   0.8247   0.2499
  -4.500  -0.1259   0.00613   0.00138  -0.0580   0.8204   0.2950
  -4.000  -0.0686   0.00586   0.00126  -0.0582   0.8164   0.3402
  -3.500  -0.0113   0.00561   0.00116  -0.0585   0.8112   0.3850
  -3.000   0.0461   0.00546   0.00110  -0.0587   0.8048   0.4263
  -2.500   0.1038   0.00525   0.00105  -0.0589   0.7987   0.4664
  -2.000   0.1611   0.00514   0.00101  -0.0590   0.7892   0.5033
  -1.500   0.2188   0.00501   0.00100  -0.0592   0.7784   0.5369
  -1.000   0.2761   0.00493   0.00099  -0.0592   0.7612   0.5679
  -0.500   0.3273   0.00530   0.00101  -0.0580   0.6383   0.5943
  -0.000   0.3777   0.00589   0.00127  -0.0568   0.5283   0.6183
   0.500   0.4302   0.00634   0.00147  -0.0561   0.4507   0.6389
   1.000   0.4832   0.00678   0.00169  -0.0555   0.3820   0.6559
   1.500   0.5360   0.00726   0.00194  -0.0548   0.3178   0.6693
   2.000   0.5888   0.00775   0.00221  -0.0541   0.2591   0.6801
   2.500   0.6410   0.00832   0.00252  -0.0534   0.2033   0.6892
   3.500   0.7452   0.00932   0.00318  -0.0519   0.1200   0.7047
   4.000   0.7970   0.00980   0.00354  -0.0511   0.0916   0.7122
   4.500   0.8486   0.01026   0.00393  -0.0503   0.0711   0.7203
   5.000   0.8999   0.01073   0.00436  -0.0494   0.0566   0.7303
   5.500   0.9509   0.01118   0.00484  -0.0485   0.0460   0.7473
   6.000   1.0038   0.01121   0.00542  -0.0478   0.0390   0.9999
   6.500   1.0531   0.01182   0.00599  -0.0466   0.0333   0.9999
   7.000   1.1026   0.01239   0.00656  -0.0454   0.0298   0.9999
   7.500   1.1510   0.01303   0.00720  -0.0441   0.0268   0.9999
   8.000   1.1975   0.01381   0.00798  -0.0425   0.0237   0.9999
   8.500   1.2449   0.01445   0.00865  -0.0410   0.0221   0.9999
   9.000   1.2881   0.01540   0.00962  -0.0389   0.0199   0.9999
   9.500   1.3330   0.01611   0.01039  -0.0371   0.0189   0.9999
  10.000   1.3751   0.01697   0.01128  -0.0350   0.0176   0.9999
  10.500   1.4101   0.01815   0.01253  -0.0317   0.0163   0.9999
  11.000   1.4456   0.01907   0.01353  -0.0284   0.0157   0.9999
  11.500   1.4785   0.02016   0.01470  -0.0250   0.0149   0.9999
  12.000   1.5075   0.02151   0.01612  -0.0214   0.0142   0.9999
  12.500   1.5269   0.02354   0.01829  -0.0168   0.0134   0.9999
  13.000   1.5548   0.02501   0.01987  -0.0137   0.0130   0.9999
  13.500   1.5783   0.02685   0.02183  -0.0103   0.0126   0.9999
  14.000   1.5977   0.02906   0.02416  -0.0070   0.0121   0.9999
  14.500   1.6125   0.03174   0.02697  -0.0038   0.0117   0.9999
  15.000   1.6190   0.03527   0.03064  -0.0006   0.0114   0.9999
  15.500   1.6086   0.04065   0.03624   0.0023   0.0109   0.9999
  16.000   1.5991   0.04662   0.04243   0.0036   0.0107   0.9999
  16.500   1.5919   0.05353   0.04956   0.0027   0.0106   0.9999
  17.000   1.5738   0.06298   0.05925  -0.0006   0.0105   0.9999
  17.500   1.5396   0.07578   0.07233  -0.0064   0.0104   0.9999
  18.000   1.4832   0.09269   0.08955  -0.0146   0.0104   0.9999
  18.500   1.4095   0.11319   0.11037  -0.0251   0.0105   0.9999
  19.000   1.3408   0.13378   0.13124  -0.0364   0.0105   0.9999
  19.500   1.2887   0.15230   0.14998  -0.0473   0.0105   0.9999
  20.000   1.2514   0.16871   0.16658  -0.0577   0.0104   0.9999
  20.500   1.2251   0.18349   0.18153  -0.0675   0.0103   0.9999
  21.000   1.1982   0.19922   0.19742  -0.0784   0.0101   0.9999
  21.500   1.1689   0.21693   0.21532  -0.0909   0.0099   0.9999
  23.000   0.6811   0.25874   0.25759  -0.0789   0.0069   0.9999
  23.500   0.6884   0.26334   0.26220  -0.0812   0.0067   0.9999
  25.000   0.7013   0.28409   0.28298  -0.0890   0.0054   0.9999
