  
       XFOIL         Version 6.99
  
 Calculated polar for: NACA 0012                                       
  
 1 1 Reynolds number fixed          Mach number fixed         
  
 xtrf =   1.000 (top)        1.000 (bottom)  
 Mach =   0.000     Re =     2.332 e 6     Ncrit =   9.000
  
   alpha    CL        CD       CDp       CM     Top_Xtr  Bot_Xtr
  ------ -------- --------- --------- -------- -------- --------
 -15.000  -0.1364   0.04343   0.03947  -0.2099   0.7562   0.0339
 -14.500  -0.0830   0.04415   0.04019  -0.2109   0.7564   0.0391
 -14.000  -0.0306   0.04485   0.04089  -0.2115   0.7565   0.0448
 -13.500   0.0214   0.04555   0.04159  -0.2120   0.7565   0.0519
 -13.000   0.0735   0.04622   0.04229  -0.2124   0.7566   0.0621
 -12.500   0.1251   0.04689   0.04300  -0.2126   0.7566   0.0745
 -12.000   0.1764   0.04758   0.04373  -0.2127   0.7567   0.0899
 -11.500   0.2277   0.04826   0.04447  -0.2127   0.7567   0.1105
 -11.000   0.2788   0.04894   0.04523  -0.2126   0.7568   0.1336
 -10.500   0.3298   0.04963   0.04600  -0.2124   0.7568   0.1624
 -10.000   0.3802   0.05034   0.04677  -0.2120   0.7568   0.1882
  -9.500   0.4306   0.05105   0.04757  -0.2116   0.7568   0.2180
  -9.000   0.4808   0.05177   0.04836  -0.2110   0.7569   0.2463
  -8.500   0.5295   0.05237   0.04904  -0.2102   0.7569   0.2743
  -8.000   0.5759   0.05270   0.04945  -0.2089   0.7568   0.3009
  -7.500   0.6224   0.05311   0.04992  -0.2076   0.7568   0.3243
  -7.000   0.6679   0.05341   0.05028  -0.2061   0.7567   0.3453
  -6.500   0.7127   0.05362   0.05056  -0.2045   0.7566   0.3664
  -6.000   0.7502   0.05354   0.05055  -0.2018   0.7562   0.3848
  -5.500   0.8088   0.04840   0.04546  -0.2014   0.7422   0.4058
  -5.000   0.8905   0.04499   0.04210  -0.2044   0.7317   0.4278
  -4.500   0.9353   0.04483   0.04200  -0.2027   0.7240   0.4421
  -4.000   0.9544   0.04628   0.04225  -0.1977   0.4710   0.4541
  -3.500   0.9979   0.04627   0.04172  -0.1956   0.3599   0.4683
  -3.000   1.0474   0.04584   0.04089  -0.1941   0.2751   0.4816
  -2.500   1.0910   0.04598   0.04072  -0.1919   0.2112   0.4923
  -2.000   1.1374   0.04589   0.04038  -0.1899   0.1574   0.5051
  -1.500   1.1830   0.04589   0.04015  -0.1878   0.1160   0.5149
  -1.000   1.2263   0.04615   0.04025  -0.1854   0.0864   0.5254
  -0.500   1.2694   0.04646   0.04044  -0.1830   0.0666   0.5340
  -0.000   1.3124   0.04680   0.04071  -0.1805   0.0526   0.5433
   0.500   1.3550   0.04716   0.04100  -0.1780   0.0432   0.5503
   1.000   1.3975   0.04751   0.04133  -0.1754   0.0361   0.5588
   1.500   1.4397   0.04787   0.04164  -0.1728   0.0305   0.5652
   2.000   1.4820   0.04821   0.04196  -0.1702   0.0261   0.5723
   2.500   1.5238   0.04862   0.04238  -0.1676   0.0235   0.5789
   3.000   1.5648   0.04904   0.04278  -0.1648   0.0206   0.5839
   3.500   1.6047   0.04956   0.04331  -0.1619   0.0189   0.5900
   4.000   1.6431   0.05015   0.04392  -0.1587   0.0169   0.5954
   4.500   1.6812   0.05081   0.04462  -0.1557   0.0159   0.5999
   5.000   1.7177   0.05156   0.04537  -0.1523   0.0144   0.6037
   5.500   1.7532   0.05239   0.04627  -0.1489   0.0135   0.6087
   6.000   1.7880   0.05330   0.04723  -0.1455   0.0128   0.6127
   6.500   1.8206   0.05434   0.04830  -0.1418   0.0120   0.6165
   7.000   1.8491   0.05569   0.04971  -0.1376   0.0109   0.6194
   7.500   1.8783   0.05710   0.05120  -0.1337   0.0106   0.6230
   8.000   1.9056   0.05864   0.05282  -0.1296   0.0102   0.6259
   8.500   1.9311   0.06031   0.05457  -0.1254   0.0098   0.6287
   9.000   1.9541   0.06217   0.05650  -0.1210   0.0093   0.6315
   9.500   1.9709   0.06458   0.05903  -0.1160   0.0086   0.6339
  10.000   1.9869   0.06717   0.06173  -0.1112   0.0083   0.6362
  10.500   2.0021   0.06987   0.06454  -0.1066   0.0082   0.6385
  11.000   2.0160   0.07271   0.06751  -0.1020   0.0079   0.6403
  11.500   2.0226   0.07629   0.07123  -0.0971   0.0077   0.6417
  12.000   2.0293   0.07995   0.07501  -0.0926   0.0075   0.6432
  12.500   2.0286   0.08456   0.07977  -0.0881   0.0073   0.6447
  13.000   2.0243   0.08976   0.08513  -0.0840   0.0070   0.6462
  13.500   2.0118   0.09630   0.09186  -0.0807   0.0068   0.6477
  14.000   1.9910   0.10454   0.10032  -0.0790   0.0066   0.6492
  14.500   1.9594   0.11510   0.11114  -0.0798   0.0064   0.6504
  15.000   1.9229   0.12718   0.12350  -0.0837   0.0063   0.6514
  15.500   1.8918   0.13886   0.13543  -0.0894   0.0063   0.6522
  16.000   1.8529   0.15260   0.14945  -0.0983   0.0063   0.6528
  16.500   1.8053   0.16885   0.16600  -0.1107   0.0063   0.6531
  17.000   1.7388   0.19030   0.18779  -0.1293   0.0063   0.6530
  17.500   1.6768   0.21220   0.21000  -0.1495   0.0063   0.6529
  18.000   1.6294   0.23223   0.23026  -0.1685   0.0063   0.6529
  18.500   1.6048   0.24700   0.24520  -0.1825   0.0062   0.6533
  19.000   1.5876   0.26018   0.25852  -0.1952   0.0062   0.6537
  19.500   1.5740   0.27279   0.27126  -0.2074   0.0061   0.6540
  20.000   1.5571   0.28747   0.28609  -0.2218   0.0059   0.6543
  21.000   0.9022   0.33900   0.33809  -0.1707   0.0030   0.6422
  21.500   0.9022   0.34631   0.34542  -0.1725   0.0030   0.6433
  22.000   0.9017   0.35628   0.35541  -0.1746   0.0027   0.6443
  22.500   0.9023   0.36195   0.36109  -0.1762   0.0022   0.6458
  23.000   0.9030   0.36654   0.36570  -0.1778   0.0020   0.6476
  23.500   0.9035   0.37064   0.36981  -0.1793   0.0020   0.6496
  24.000   0.9024   0.37752   0.37670  -0.1810   0.0019   0.6512
  24.500   0.9016   0.38522   0.38441  -0.1827   0.0018   0.6524
  25.000   0.9012   0.39338   0.39259  -0.1844   0.0013   0.6533
