  
       XFOIL         Version 6.99
  
 Calculated polar for: NACA 0012                                       
  
 1 1 Reynolds number fixed          Mach number fixed         
  
 xtrf =   1.000 (top)        1.000 (bottom)  
 Mach =   0.000     Re =     2.332 e 6     Ncrit =   9.000
  
   alpha    CL        CD       CDp       CM     Top_Xtr  Bot_Xtr
  ------ -------- --------- --------- -------- -------- --------
 -15.000  -0.2267   0.03199   0.02791  -0.2006   0.7554   0.0301
 -14.500  -0.1769   0.03253   0.02843  -0.2011   0.7554   0.0338
 -14.000  -0.1273   0.03307   0.02895  -0.2013   0.7554   0.0374
 -13.500  -0.0768   0.03357   0.02946  -0.2016   0.7555   0.0433
 -13.000  -0.0263   0.03407   0.02997  -0.2017   0.7555   0.0508
 -12.500   0.0241   0.03458   0.03051  -0.2018   0.7555   0.0600
 -12.000   0.0748   0.03510   0.03106  -0.2017   0.7555   0.0728
 -11.500   0.1257   0.03560   0.03162  -0.2017   0.7555   0.0897
 -11.000   0.1764   0.03613   0.03221  -0.2016   0.7555   0.1081
 -10.500   0.2273   0.03665   0.03280  -0.2014   0.7556   0.1337
 -10.000   0.2779   0.03719   0.03342  -0.2011   0.7556   0.1590
  -9.500   0.3475   0.03322   0.02954  -0.2040   0.7574   0.1943
  -9.000   0.3670   0.03496   0.03135  -0.1992   0.7581   0.2166
  -8.500   0.3901   0.03657   0.03303  -0.1949   0.7589   0.2403
  -8.000   0.4401   0.03703   0.03358  -0.1942   0.7588   0.2700
  -7.500   0.5443   0.03539   0.03203  -0.2009   0.7571   0.3088
  -6.500   0.6161   0.04057   0.03736  -0.1948   0.7555   0.3524
  -6.000   0.6617   0.04082   0.03768  -0.1933   0.7554   0.3770
  -5.500   0.7052   0.04073   0.03766  -0.1914   0.7552   0.3970
  -4.500   1.1222   0.01173   0.00760  -0.2351   0.5499   0.4651
  -4.000   0.9755   0.02643   0.02272  -0.2051   0.5681   0.4636
  -3.500   0.9413   0.03151   0.02723  -0.1915   0.4488   0.4717
  -3.000   0.9742   0.03222   0.02753  -0.1877   0.3569   0.4854
  -2.500   1.0087   0.03296   0.02791  -0.1841   0.2778   0.4976
  -2.000   1.0468   0.03351   0.02816  -0.1809   0.2149   0.5092
  -1.500   1.0895   0.03374   0.02816  -0.1783   0.1644   0.5214
  -1.000   1.1304   0.03415   0.02836  -0.1755   0.1225   0.5315
  -0.500   1.1717   0.03459   0.02864  -0.1728   0.0908   0.5421
   0.000   1.2140   0.03505   0.02900  -0.1702   0.0719   0.5509
   0.500   1.2563   0.03550   0.02936  -0.1676   0.0564   0.5602
   1.000   1.2990   0.03595   0.02975  -0.1651   0.0457   0.5676
   1.500   1.3415   0.03639   0.03016  -0.1625   0.0380   0.5760
   2.000   1.3838   0.03684   0.03055  -0.1599   0.0321   0.5821
   2.500   1.4262   0.03730   0.03100  -0.1573   0.0277   0.5895
   3.000   1.4681   0.03783   0.03154  -0.1547   0.0250   0.5958
   3.500   1.5090   0.03840   0.03209  -0.1520   0.0219   0.6005
   4.000   1.5493   0.03903   0.03274  -0.1492   0.0199   0.6068
   4.500   1.5884   0.03972   0.03344  -0.1462   0.0180   0.6119
   5.000   1.6272   0.04046   0.03420  -0.1432   0.0167   0.6162
   5.500   1.6640   0.04132   0.03507  -0.1400   0.0148   0.6203
   6.000   1.7013   0.04219   0.03600  -0.1369   0.0142   0.6248
   6.500   1.7365   0.04319   0.03704  -0.1336   0.0133   0.6285
   7.000   1.7688   0.04437   0.03826  -0.1299   0.0122   0.6321
   7.500   1.8000   0.04570   0.03965  -0.1261   0.0116   0.6346
   8.000   1.8308   0.04706   0.04110  -0.1225   0.0112   0.6380
   8.500   1.8597   0.04856   0.04266  -0.1186   0.0107   0.6407
   9.000   1.8862   0.05023   0.04440  -0.1146   0.0101   0.6432
   9.500   1.9070   0.05238   0.04665  -0.1099   0.0094   0.6459
  10.000   1.9291   0.05446   0.04883  -0.1056   0.0091   0.6483
  10.500   1.9482   0.05685   0.05132  -0.1012   0.0089   0.6502
  11.000   1.9662   0.05934   0.05393  -0.0969   0.0087   0.6522
  11.500   1.9811   0.06210   0.05680  -0.0924   0.0084   0.6537
  12.000   1.9899   0.06553   0.06035  -0.0877   0.0081   0.6549
  12.500   1.9965   0.06926   0.06421  -0.0831   0.0078   0.6563
  13.000   1.9952   0.07394   0.06905  -0.0784   0.0075   0.6578
  13.500   1.9825   0.08009   0.07540  -0.0739   0.0072   0.6594
  14.000   1.9653   0.08733   0.08286  -0.0705   0.0070   0.6609
  14.500   1.9531   0.09464   0.09036  -0.0689   0.0070   0.6625
  15.000   1.9346   0.10338   0.09932  -0.0690   0.0069   0.6634
  15.500   1.9091   0.11369   0.10986  -0.0713   0.0069   0.6641
  16.000   1.8759   0.12580   0.12223  -0.0762   0.0068   0.6645
  16.500   1.8338   0.14009   0.13680  -0.0844   0.0068   0.6648
  17.000   1.7819   0.15695   0.15396  -0.0960   0.0068   0.6650
  17.500   1.7146   0.17828   0.17562  -0.1130   0.0068   0.6650
  18.000   1.6434   0.20223   0.19990  -0.1338   0.0068   0.6649
  18.500   1.5891   0.22375   0.22168  -0.1533   0.0068   0.6649
  19.000   1.5608   0.23961   0.23771  -0.1678   0.0067   0.6651
  19.500   1.5370   0.25514   0.25340  -0.1822   0.0066   0.6654
  20.000   1.5226   0.26834   0.26672  -0.1945   0.0064   0.6657
  20.500   1.5114   0.28107   0.27957  -0.2064   0.0061   0.6661
  21.000   1.5015   0.29411   0.29270  -0.2185   0.0058   0.6664
  21.500   0.8819   0.33038   0.32936  -0.1610   0.0036   0.6561
  22.000   0.8817   0.34061   0.33960  -0.1633   0.0030   0.6570
  22.500   0.8835   0.34599   0.34500  -0.1650   0.0026   0.6585
  23.000   0.8853   0.35066   0.34969  -0.1668   0.0025   0.6604
  23.500   0.8868   0.35498   0.35402  -0.1685   0.0024   0.6624
  24.000   0.8863   0.36275   0.36180  -0.1703   0.0023   0.6634
  24.500   0.8863   0.37080   0.36987  -0.1723   0.0022   0.6641
  25.000   0.8868   0.37859   0.37767  -0.1741   0.0016   0.6647