  
       XFOIL         Version 6.99
  
 Calculated polar for: NACA 0012                                       
  
 1 1 Reynolds number fixed          Mach number fixed         
  
 xtrf =   1.000 (top)        1.000 (bottom)  
 Mach =   0.000     Re =     1.521 e 6     Ncrit =   9.000
  
   alpha    CL        CD       CDp       CM     Top_Xtr  Bot_Xtr
  ------ -------- --------- --------- -------- -------- --------
 -15.000  -0.3883   0.01624   0.01118  -0.1829   0.7562   0.0274
 -14.500  -0.3314   0.01551   0.01042  -0.1844   0.7566   0.0307
 -14.000  -0.2743   0.01490   0.00979  -0.1858   0.7571   0.0346
 -13.500  -0.2416   0.01821   0.01344  -0.1851   0.7899   0.0375
 -13.000  -0.1889   0.01808   0.01332  -0.1856   0.7900   0.0435
 -12.500  -0.1369   0.01807   0.01333  -0.1858   0.7901   0.0509
 -12.000  -0.0859   0.01815   0.01344  -0.1859   0.7902   0.0602
 -11.500  -0.0359   0.01832   0.01366  -0.1857   0.7903   0.0719
 -11.000   0.0132   0.01855   0.01396  -0.1853   0.7903   0.0895
 -10.500   0.0605   0.01892   0.01441  -0.1846   0.7904   0.1098
 -10.000   0.1056   0.01941   0.01499  -0.1835   0.7904   0.1354
  -9.500   0.1481   0.02007   0.01575  -0.1820   0.7904   0.1625
  -9.000   0.1871   0.02093   0.01670  -0.1798   0.7904   0.1916
  -8.500   0.2160   0.02210   0.01795  -0.1759   0.7902   0.2192
  -8.000   0.2488   0.02325   0.01919  -0.1727   0.7902   0.2497
  -7.500   0.2852   0.02430   0.02031  -0.1701   0.7904   0.2763
  -7.000   0.3378   0.02461   0.02072  -0.1698   0.7902   0.3112
  -6.500   0.4323   0.02299   0.01923  -0.1755   0.7891   0.3516
  -6.000   0.5084   0.02490   0.02118  -0.1783   0.7864   0.3818
  -5.500   0.5528   0.02511   0.02149  -0.1765   0.7862   0.4073
  -5.000   0.7659   0.00980   0.00571  -0.1991   0.7431   0.4507
  -4.500   0.8250   0.00946   0.00541  -0.1994   0.7396   0.4709
  -4.000   0.8931   0.00815   0.00408  -0.2014   0.7399   0.4904
  -3.500   0.9538   0.00726   0.00325  -0.2019   0.7355   0.5074
  -3.000   1.0119   0.00671   0.00275  -0.2019   0.7242   0.5226
  -2.500   0.9703   0.00952   0.00468  -0.1824   0.4787   0.5316
  -2.000   0.9545   0.01285   0.00775  -0.1703   0.3965   0.5415
  -1.500   0.9603   0.01587   0.01051  -0.1628   0.3261   0.5522
  -1.000   0.9802   0.01768   0.01208  -0.1570   0.2647   0.5630
  -0.500   1.0068   0.01898   0.01310  -0.1520   0.2052   0.5730
  -0.000   1.0398   0.01993   0.01385  -0.1480   0.1576   0.5831
   0.500   1.0765   0.02074   0.01446  -0.1445   0.1203   0.5920
   1.000   1.1155   0.02146   0.01506  -0.1414   0.0922   0.6009
   1.500   1.1557   0.02216   0.01562  -0.1386   0.0708   0.6085
   2.000   1.1973   0.02283   0.01624  -0.1359   0.0569   0.6158
   2.500   1.2390   0.02351   0.01685  -0.1333   0.0469   0.6224
   3.000   1.2807   0.02420   0.01752  -0.1307   0.0393   0.6283
   3.500   1.3223   0.02493   0.01823  -0.1281   0.0337   0.6338
   4.000   1.3632   0.02571   0.01898  -0.1255   0.0291   0.6390
   4.500   1.4041   0.02649   0.01978  -0.1229   0.0262   0.6433
   5.000   1.4439   0.02736   0.02068  -0.1201   0.0236   0.6472
   5.500   1.4833   0.02827   0.02160  -0.1173   0.0216   0.6513
   6.000   1.5212   0.02929   0.02266  -0.1144   0.0198   0.6551
   6.500   1.5589   0.03029   0.02372  -0.1115   0.0184   0.6575
   7.000   1.5928   0.03159   0.02506  -0.1081   0.0167   0.6601
   7.500   1.6277   0.03280   0.02635  -0.1049   0.0160   0.6630
   8.000   1.6603   0.03416   0.02778  -0.1015   0.0152   0.6667
   8.500   1.6902   0.03571   0.02939  -0.0979   0.0143   0.6684
   9.000   1.7141   0.03777   0.03157  -0.0936   0.0133   0.6700
   9.500   1.7424   0.03943   0.03334  -0.0900   0.0129   0.6720
  10.000   1.7665   0.04141   0.03543  -0.0861   0.0124   0.6743
  10.500   1.7887   0.04358   0.03769  -0.0821   0.0118   0.6773
  11.000   1.8052   0.04626   0.04049  -0.0777   0.0113   0.6788
  11.500   1.8105   0.05000   0.04440  -0.0725   0.0107   0.6801
  12.000   1.8191   0.05351   0.04809  -0.0680   0.0105   0.6819
  12.500   1.8291   0.05703   0.05177  -0.0641   0.0103   0.6839
  13.000   1.8337   0.06122   0.05613  -0.0601   0.0101   0.6858
  13.500   1.8325   0.06620   0.06129  -0.0565   0.0098   0.6872
  14.000   1.8256   0.07222   0.06750  -0.0536   0.0096   0.6885
  14.500   1.8121   0.07984   0.07534  -0.0521   0.0094   0.6898
  15.000   1.7919   0.08928   0.08502  -0.0529   0.0092   0.6910
  15.500   1.7620   0.10115   0.09715  -0.0563   0.0091   0.6919
  16.000   1.7198   0.11577   0.11206  -0.0628   0.0090   0.6926
  16.500   1.6675   0.13287   0.12946  -0.0723   0.0090   0.6930
  17.000   1.6100   0.15196   0.14886  -0.0848   0.0090   0.6932
  17.500   1.5550   0.17151   0.16869  -0.0989   0.0090   0.6933
  18.000   1.5115   0.18965   0.18706  -0.1129   0.0089   0.6936
  18.500   1.4779   0.20638   0.20397  -0.1263   0.0088   0.6941
  19.000   1.4518   0.22190   0.21963  -0.1392   0.0086   0.6945
  19.500   1.4262   0.23799   0.23591  -0.1530   0.0083   0.6949
  20.000   1.3724   0.26699   0.26523  -0.1773   0.0081   0.6943
  21.000   0.8325   0.29720   0.29580  -0.1362   0.0062   0.6858
  21.500   0.8318   0.30807   0.30668  -0.1392   0.0056   0.6869
  22.000   0.8350   0.31414   0.31276  -0.1412   0.0050   0.6878
  22.500   0.8385   0.31942   0.31806  -0.1432   0.0048   0.6892
  23.000   0.8421   0.32406   0.32273  -0.1451   0.0046   0.6910
  23.500   0.8443   0.33017   0.32885  -0.1469   0.0045   0.6926
  24.000   0.8445   0.34071   0.33941  -0.1495   0.0040   0.6937
  24.500   0.8469   0.34675   0.34547  -0.1515   0.0035   0.6948
  25.000   0.8493   0.35204   0.35078  -0.1535   0.0033   0.6962
