  
       XFOIL         Version 6.99
  
 Calculated polar for: NACA 0012                                       
  
 1 1 Reynolds number fixed          Mach number fixed         
  
 xtrf =   1.000 (top)        1.000 (bottom)  
 Mach =   0.000     Re =     1.521 e 6     Ncrit =   9.000
  
   alpha    CL        CD       CDp       CM     Top_Xtr  Bot_Xtr
  ------ -------- --------- --------- -------- -------- --------
 -15.000  -1.6641   0.04068   0.03614   0.0094   0.9999   0.0110
 -14.500  -1.6606   0.03674   0.03205   0.0126   0.9999   0.0113
 -14.000  -1.6502   0.03360   0.02877   0.0159   0.9999   0.0116
 -13.500  -1.6348   0.03097   0.02601   0.0193   0.9999   0.0120
 -13.000  -1.6147   0.02877   0.02369   0.0227   0.9999   0.0124
 -12.500  -1.5910   0.02690   0.02170   0.0261   0.9999   0.0128
 -12.000  -1.5751   0.02450   0.01914   0.0306   0.9999   0.0134
 -11.500  -1.5501   0.02277   0.01733   0.0344   0.9999   0.0141
 -11.000  -1.5200   0.02141   0.01589   0.0378   0.9999   0.0148
 -10.500  -1.4872   0.02023   0.01463   0.0410   0.9999   0.0154
 -10.000  -1.4550   0.01898   0.01328   0.0445   0.9999   0.0162
  -9.500  -1.4208   0.01785   0.01211   0.0479   0.9999   0.0175
  -9.000  -1.3826   0.01700   0.01120   0.0508   0.9999   0.0186
  -8.500  -1.3449   0.01607   0.01022   0.0539   0.9999   0.0199
  -8.000  -1.3068   0.01574   0.00935   0.0572   0.7472   0.0217
  -7.500  -1.2619   0.01513   0.00862   0.0591   0.7334   0.0232
  -7.000  -1.2171   0.01440   0.00785   0.0610   0.7261   0.0262
  -6.500  -1.1705   0.01378   0.00718   0.0627   0.7199   0.0291
  -6.000  -1.1223   0.01325   0.00662   0.0641   0.7145   0.0323
  -5.500  -1.0742   0.01268   0.00604   0.0656   0.7091   0.0378
  -5.000  -1.0252   0.01217   0.00553   0.0669   0.7039   0.0445
  -4.500  -0.9753   0.01165   0.00505   0.0681   0.6986   0.0538
  -4.000  -0.9255   0.01111   0.00458   0.0693   0.6930   0.0678
  -3.500  -0.8749   0.01054   0.00413   0.0704   0.6871   0.0866
  -3.000  -0.8244   0.00997   0.00369   0.0715   0.6815   0.1134
  -2.500  -0.7740   0.00936   0.00327   0.0726   0.6740   0.1502
  -2.000  -0.7237   0.00876   0.00288   0.0737   0.6661   0.1966
  -1.500  -0.6732   0.00818   0.00252   0.0748   0.6559   0.2514
  -1.000  -0.6227   0.00762   0.00221   0.0760   0.6439   0.3134
  -0.500  -0.5721   0.00709   0.00192   0.0771   0.6300   0.3810
  -0.000  -0.5216   0.00656   0.00165   0.0782   0.6135   0.4569
   0.500  -0.4721   0.00597   0.00138   0.0795   0.5944   0.5518
   1.000  -0.4287   0.00504   0.00110   0.0821   0.5734   0.7452
   1.500  -0.3714   0.00511   0.00111   0.0821   0.5490   0.7644
   2.000  -0.3138   0.00520   0.00112   0.0820   0.5209   0.7753
   2.500  -0.2560   0.00532   0.00116   0.0819   0.4906   0.7830
   3.000  -0.1980   0.00549   0.00120   0.0816   0.4576   0.7881
   3.500  -0.1402   0.00559   0.00122   0.0814   0.4213   0.7934
   4.000  -0.0824   0.00579   0.00130   0.0811   0.3824   0.7974
   4.500  -0.0245   0.00600   0.00139   0.0807   0.3427   0.8006
   5.000   0.0331   0.00628   0.00151   0.0804   0.2992   0.8030
   5.500   0.0906   0.00655   0.00164   0.0800   0.2560   0.8055
   6.000   0.1475   0.00683   0.00180   0.0797   0.2130   0.8103
   6.500   0.2044   0.00719   0.00202   0.0794   0.1719   0.8131
   7.000   0.2614   0.00756   0.00224   0.0790   0.1358   0.8130
   7.500   0.3183   0.00794   0.00250   0.0785   0.1061   0.8128
   8.000   0.3749   0.00836   0.00280   0.0781   0.0825   0.8126
   8.500   0.4313   0.00876   0.00313   0.0778   0.0664   0.8125
   9.000   0.4873   0.00922   0.00352   0.0774   0.0528   0.8125
   9.500   0.5432   0.00966   0.00394   0.0771   0.0446   0.8125
  10.000   0.5986   0.01015   0.00441   0.0768   0.0381   0.8125
  10.500   0.6536   0.01067   0.00492   0.0765   0.0332   0.8127
  11.000   0.7083   0.01116   0.00545   0.0763   0.0298   0.8130
  11.500   0.7621   0.01178   0.00610   0.0761   0.0267   0.8133
  12.000   0.8154   0.01242   0.00676   0.0759   0.0243   0.8138
  12.500   0.8679   0.01313   0.00754   0.0759   0.0223   0.8144
  13.000   0.9198   0.01385   0.00829   0.0758   0.0206   0.8151
  13.500   0.9696   0.01481   0.00934   0.0759   0.0191   0.8160
  14.000   1.0198   0.01561   0.01022   0.0759   0.0180   0.8171
  14.500   1.0678   0.01662   0.01130   0.0760   0.0169   0.8184
  15.000   1.1119   0.01800   0.01280   0.0764   0.0158   0.8199
  16.000   1.1995   0.02033   0.01536   0.0770   0.0145   0.8260
  16.500   1.2362   0.02198   0.01714   0.0775   0.0138   0.8311
  17.500   1.2683   0.02951   0.02518   0.0747   0.0129   0.8574
  18.000   1.2759   0.03482   0.03085   0.0712   0.0127   0.9024
  18.500   1.2687   0.04183   0.03828   0.0672   0.0125   1.0001
  19.000   1.2473   0.05145   0.04811   0.0616   0.0124   1.0001
  19.500   1.2084   0.06385   0.06076   0.0546   0.0123   1.0001
  20.000   1.1556   0.07895   0.07610   0.0464   0.0123   1.0001
  20.500   1.0987   0.09546   0.09285   0.0377   0.0123   1.0001
  21.000   1.0454   0.11216   0.10976   0.0289   0.0123   1.0001
  21.500   1.0023   0.12777   0.12555   0.0207   0.0122   1.0001
  22.000   0.9688   0.14231   0.14024   0.0128   0.0120   1.0001
  22.500   0.9395   0.15673   0.15481   0.0047   0.0118   1.0001
  23.000   0.9172   0.17040   0.16860  -0.0032   0.0115   1.0001
  23.500   0.8919   0.18575   0.18407  -0.0123   0.0112   1.0001
