  
       XFOIL         Version 6.99
  
 Calculated polar for: NACA 0012                                       
  
 1 1 Reynolds number fixed          Mach number fixed         
  
 xtrf =   1.000 (top)        1.000 (bottom)  
 Mach =   0.000     Re =     1.521 e 6     Ncrit =   9.000
  
   alpha    CL        CD       CDp       CM     Top_Xtr  Bot_Xtr
  ------ -------- --------- --------- -------- -------- --------
 -15.000  -0.9215   0.01597   0.01058  -0.1044   0.7801   0.0180
 -14.500  -0.8716   0.01493   0.00949  -0.1048   0.7805   0.0195
 -14.000  -0.8193   0.01419   0.00868  -0.1053   0.7810   0.0207
 -13.500  -0.7673   0.01331   0.00773  -0.1057   0.7815   0.0225
 -13.000  -0.7136   0.01267   0.00705  -0.1062   0.7821   0.0245
 -12.500  -0.6598   0.01199   0.00633  -0.1066   0.7826   0.0270
 -12.000  -0.6048   0.01148   0.00579  -0.1071   0.7832   0.0296
 -11.500  -0.5499   0.01090   0.00520  -0.1076   0.7837   0.0337
 -11.000  -0.4942   0.01041   0.00471  -0.1082   0.7843   0.0386
 -10.500  -0.4382   0.00998   0.00428  -0.1087   0.7848   0.0448
 -10.000  -0.3819   0.00956   0.00390  -0.1092   0.7853   0.0537
  -9.500  -0.3252   0.00919   0.00357  -0.1098   0.7858   0.0651
  -9.000  -0.2684   0.00883   0.00328  -0.1104   0.7862   0.0815
  -8.500  -0.2114   0.00850   0.00304  -0.1109   0.7866   0.1026
  -8.000  -0.1540   0.00809   0.00274  -0.1115   0.7876   0.1307
  -7.500  -0.0964   0.00769   0.00248  -0.1121   0.7887   0.1658
  -7.000  -0.0386   0.00735   0.00229  -0.1128   0.7899   0.2046
  -6.500   0.0194   0.00709   0.00217  -0.1134   0.7908   0.2440
  -6.000   0.0768   0.00691   0.00212  -0.1138   0.7876   0.2856
  -5.500   0.1347   0.00665   0.00197  -0.1142   0.7850   0.3247
  -5.000   0.1928   0.00639   0.00183  -0.1146   0.7828   0.3618
  -4.500   0.2510   0.00618   0.00173  -0.1150   0.7802   0.3973
  -4.000   0.3093   0.00599   0.00163  -0.1153   0.7771   0.4306
  -3.500   0.3674   0.00585   0.00156  -0.1156   0.7732   0.4605
  -3.000   0.4254   0.00576   0.00156  -0.1158   0.7688   0.4886
  -2.500   0.4834   0.00558   0.00147  -0.1160   0.7631   0.5142
  -2.000   0.5409   0.00548   0.00140  -0.1160   0.7539   0.5365
  -1.500   0.5981   0.00532   0.00134  -0.1160   0.7394   0.5577
  -1.000   0.6340   0.00654   0.00182  -0.1119   0.5244   0.5750
  -0.500   0.6776   0.00732   0.00222  -0.1095   0.4216   0.5910
  -0.000   0.7229   0.00797   0.00259  -0.1073   0.3431   0.6055
   0.500   0.7682   0.00863   0.00297  -0.1051   0.2746   0.6184
   1.000   0.8134   0.00927   0.00338  -0.1030   0.2157   0.6302
   1.500   0.8591   0.00992   0.00381  -0.1009   0.1654   0.6401
   2.500   0.9511   0.01121   0.00476  -0.0969   0.0945   0.6566
   3.000   0.9974   0.01183   0.00527  -0.0949   0.0733   0.6637
   3.500   1.0424   0.01241   0.00578  -0.0927   0.0590   0.6691
   4.000   1.0854   0.01301   0.00633  -0.0901   0.0485   0.6744
   4.500   1.1301   0.01366   0.00693  -0.0879   0.0408   0.6793
   5.000   1.1748   0.01432   0.00758  -0.0858   0.0352   0.6830
   5.500   1.2189   0.01504   0.00829  -0.0836   0.0306   0.6875
   6.000   1.2620   0.01580   0.00903  -0.0813   0.0271   0.6911
   6.500   1.3051   0.01651   0.00980  -0.0790   0.0248   0.6949
   7.000   1.3453   0.01746   0.01075  -0.0763   0.0220   0.6987
   7.500   1.3870   0.01818   0.01154  -0.0740   0.0207   0.7022
   8.000   1.4255   0.01917   0.01254  -0.0712   0.0190   0.7057
   8.500   1.4626   0.02018   0.01367  -0.0683   0.0178   0.7092
   9.000   1.4994   0.02117   0.01474  -0.0655   0.0168   0.7126
   9.500   1.5330   0.02240   0.01604  -0.0623   0.0157   0.7159
  10.000   1.5630   0.02388   0.01763  -0.0587   0.0148   0.7193
  10.500   1.5945   0.02522   0.01908  -0.0555   0.0142   0.7225
  11.000   1.6229   0.02675   0.02072  -0.0520   0.0136   0.7261
  11.500   1.6477   0.02856   0.02264  -0.0484   0.0130   0.7302
  12.000   1.6609   0.03126   0.02551  -0.0436   0.0122   0.7341
  12.500   1.6802   0.03352   0.02795  -0.0399   0.0120   0.7438
  13.000   1.6950   0.03550   0.03054  -0.0356   0.0117   0.9998
  13.500   1.7083   0.03836   0.03353  -0.0319   0.0113   0.9998
  14.000   1.7182   0.04162   0.03693  -0.0283   0.0110   0.9998
  14.500   1.7243   0.04544   0.04090  -0.0250   0.0106   0.9998
  15.000   1.7219   0.05037   0.04599  -0.0221   0.0104   0.9998
  15.500   1.7089   0.05713   0.05295  -0.0203   0.0101   0.9998
  16.000   1.6795   0.06746   0.06357  -0.0217   0.0098   0.9998
  16.500   1.6373   0.08146   0.07788  -0.0268   0.0097   0.9998
  17.000   1.5803   0.09877   0.09553  -0.0348   0.0097   0.9998
  17.500   1.5207   0.11705   0.11412  -0.0441   0.0097   0.9998
  18.000   1.4606   0.13629   0.13364  -0.0549   0.0097   0.9998
  18.500   1.4056   0.15540   0.15300  -0.0667   0.0097   0.9998
  19.000   1.3627   0.17309   0.17091  -0.0786   0.0096   0.9998
  19.500   1.3355   0.18795   0.18594  -0.0890   0.0096   0.9998
  20.000   1.3127   0.20255   0.20071  -0.0997   0.0095   0.9998
  20.500   1.2913   0.21758   0.21591  -0.1110   0.0094   0.9998
  21.000   1.2525   0.23953   0.23811  -0.1277   0.0091   0.9998
  21.500   0.7458   0.26235   0.26130  -0.0997   0.0076   0.9998
  22.000   0.7474   0.27041   0.26936  -0.1023   0.0074   0.9998
  22.500   0.7485   0.27972   0.27868  -0.1054   0.0063   0.9998
  23.000   0.7544   0.28468   0.28365  -0.1076   0.0059   0.9998
  23.500   0.7603   0.28922   0.28821  -0.1098   0.0057   0.9998
  24.000   0.7643   0.29531   0.29430  -0.1119   0.0056   0.9998
  24.500   0.7653   0.30548   0.30448  -0.1148   0.0050   0.9998
  25.000   0.7697   0.31130   0.31031  -0.1171   0.0045   0.9998
