  
       XFOIL         Version 6.99
  
 Calculated polar for: NACA 0012                                       
  
 1 1 Reynolds number fixed          Mach number fixed         
  
 xtrf =   1.000 (top)        1.000 (bottom)  
 Mach =   0.000     Re =     1.521 e 6     Ncrit =   9.000
  
   alpha    CL        CD       CDp       CM     Top_Xtr  Bot_Xtr
  ------ -------- --------- --------- -------- -------- --------
 -15.000  -0.2892   0.03304   0.02861  -0.1921   0.7698   0.0307
 -14.500  -0.2356   0.03329   0.02884  -0.1934   0.7699   0.0349
 -14.000  -0.1828   0.03366   0.02918  -0.1943   0.7699   0.0395
 -13.500  -0.1307   0.03409   0.02960  -0.1950   0.7700   0.0453
 -13.000  -0.0785   0.03455   0.03004  -0.1955   0.7700   0.0526
 -12.500  -0.0262   0.03501   0.03052  -0.1959   0.7700   0.0633
 -12.000   0.0259   0.03549   0.03104  -0.1963   0.7701   0.0766
 -11.500   0.0778   0.03600   0.03159  -0.1964   0.7701   0.0928
 -11.000   0.1300   0.03649   0.03216  -0.1967   0.7701   0.1161
 -10.500   0.1821   0.03702   0.03276  -0.1967   0.7702   0.1431
 -10.000   0.2339   0.03757   0.03339  -0.1967   0.7702   0.1719
  -9.500   0.2876   0.03407   0.02996  -0.1971   0.7719   0.2041
  -9.000   0.3157   0.03508   0.03106  -0.1935   0.7725   0.2320
  -8.500   0.3433   0.03618   0.03222  -0.1897   0.7732   0.2570
  -8.000   0.3732   0.03724   0.03336  -0.1862   0.7740   0.2831
  -7.500   0.4151   0.03796   0.03416  -0.1844   0.7744   0.3106
  -7.000   0.4866   0.03785   0.03412  -0.1867   0.7731   0.3430
  -6.500   0.5635   0.03774   0.03411  -0.1897   0.7721   0.3740
  -6.000   0.6246   0.04170   0.03814  -0.1901   0.7702   0.3974
  -5.500   0.6690   0.04195   0.03847  -0.1884   0.7701   0.4179
  -5.000   0.7112   0.04196   0.03856  -0.1863   0.7699   0.4370
  -4.500   0.7490   0.03706   0.03370  -0.1824   0.7500   0.4545
  -4.000   1.2095   0.00844   0.00430  -0.2439   0.6393   0.5036
  -3.500   1.0966   0.01710   0.01302  -0.2150   0.5781   0.5062
  -3.000   0.9714   0.02868   0.02448  -0.1881   0.5247   0.5079
  -2.500   0.9808   0.03082   0.02605  -0.1808   0.4083   0.5189
  -2.000   1.0108   0.03175   0.02656  -0.1764   0.3197   0.5298
  -1.500   1.0484   0.03219   0.02662  -0.1730   0.2440   0.5406
  -1.000   1.0871   0.03264   0.02678  -0.1699   0.1834   0.5509
  -0.500   1.1267   0.03312   0.02701  -0.1668   0.1361   0.5598
  -0.000   1.1678   0.03358   0.02731  -0.1640   0.1026   0.5695
   0.500   1.2095   0.03401   0.02759  -0.1613   0.0773   0.5774
   1.000   1.2523   0.03443   0.02793  -0.1587   0.0611   0.5855
   1.500   1.2948   0.03487   0.02829  -0.1561   0.0487   0.5927
   2.000   1.3365   0.03540   0.02877  -0.1534   0.0404   0.5992
   2.500   1.3778   0.03598   0.02934  -0.1507   0.0346   0.6053
   3.000   1.4189   0.03660   0.02996  -0.1480   0.0303   0.6112
   3.500   1.4592   0.03727   0.03062  -0.1452   0.0267   0.6163
   4.000   1.4989   0.03799   0.03135  -0.1423   0.0238   0.6208
   4.500   1.5377   0.03876   0.03216  -0.1393   0.0216   0.6255
   5.000   1.5757   0.03962   0.03302  -0.1363   0.0198   0.6297
   5.500   1.6121   0.04059   0.03406  -0.1330   0.0182   0.6334
   6.000   1.6484   0.04159   0.03513  -0.1298   0.0170   0.6363
   6.500   1.6816   0.04280   0.03637  -0.1263   0.0156   0.6395
   7.000   1.7137   0.04411   0.03776  -0.1227   0.0147   0.6430
   7.500   1.7450   0.04551   0.03924  -0.1191   0.0140   0.6463
   8.000   1.7729   0.04717   0.04099  -0.1151   0.0133   0.6482
   8.500   1.7958   0.04922   0.04313  -0.1107   0.0124   0.6498
   9.000   1.8167   0.05148   0.04553  -0.1062   0.0119   0.6517
   9.500   1.8399   0.05356   0.04773  -0.1021   0.0115   0.6538
  10.000   1.8584   0.05608   0.05038  -0.0977   0.0111   0.6565
  10.500   1.8752   0.05878   0.05319  -0.0934   0.0107   0.6598
  11.000   1.8876   0.06191   0.05645  -0.0888   0.0103   0.6608
  11.500   1.8885   0.06628   0.06098  -0.0837   0.0098   0.6617
  12.000   1.8776   0.07209   0.06702  -0.0784   0.0094   0.6626
  12.500   1.8786   0.07683   0.07195  -0.0746   0.0093   0.6639
  13.000   1.8746   0.08244   0.07776  -0.0713   0.0092   0.6655
  13.500   1.8627   0.08962   0.08516  -0.0691   0.0090   0.6669
  14.000   1.8447   0.09843   0.09421  -0.0689   0.0089   0.6684
  14.500   1.8199   0.10896   0.10499  -0.0710   0.0087   0.6699
  15.000   1.7877   0.12143   0.11773  -0.0759   0.0086   0.6713
  15.500   1.7483   0.13580   0.13239  -0.0837   0.0086   0.6717
  16.000   1.7024   0.15207   0.14896  -0.0945   0.0085   0.6720
  16.500   1.6528   0.17005   0.16724  -0.1078   0.0085   0.6722
  17.000   1.6071   0.18815   0.18560  -0.1223   0.0085   0.6723
  17.500   1.5679   0.20573   0.20340  -0.1371   0.0084   0.6725
  18.000   1.5401   0.22106   0.21891  -0.1504   0.0083   0.6729
  18.500   1.5158   0.23635   0.23437  -0.1640   0.0082   0.6732
  19.000   1.4988   0.25017   0.24832  -0.1764   0.0079   0.6737
  19.500   1.4778   0.26639   0.26470  -0.1910   0.0077   0.6739
  20.500   0.8716   0.31323   0.31201  -0.1534   0.0054   0.6629
  21.000   0.8727   0.32000   0.31880  -0.1552   0.0053   0.6641
  21.500   0.8720   0.33084   0.32965  -0.1579   0.0046   0.6651
  22.000   0.8741   0.33655   0.33538  -0.1597   0.0041   0.6669
  22.500   0.8763   0.34158   0.34044  -0.1614   0.0039   0.6688
  23.000   0.8784   0.34618   0.34505  -0.1631   0.0038   0.6713
  23.500   0.8787   0.35344   0.35232  -0.1649   0.0037   0.6720
  24.000   0.8788   0.36330   0.36220  -0.1672   0.0032   0.6727
  24.500   0.8798   0.36913   0.36805  -0.1690   0.0028   0.6739
  25.000   0.8808   0.37428   0.37322  -0.1708   0.0026   0.6753
