  
       XFOIL         Version 6.99
  
 Calculated polar for: NACA 0012                                       
  
 1 1 Reynolds number fixed          Mach number fixed         
  
 xtrf =   1.000 (top)        1.000 (bottom)  
 Mach =   0.000     Re =     2.332 e 6     Ncrit =   9.000
  
   alpha    CL        CD       CDp       CM     Top_Xtr  Bot_Xtr
  ------ -------- --------- --------- -------- -------- --------
 -15.000  -1.5202   0.02110   0.01642  -0.0203   1.0000   0.0110
 -14.500  -1.4926   0.01990   0.01512  -0.0166   1.0000   0.0112
 -14.000  -1.4620   0.01840   0.01351  -0.0135   1.0000   0.0120
 -13.500  -1.4228   0.01735   0.01241  -0.0115   1.0000   0.0127
 -13.000  -1.3803   0.01646   0.01148  -0.0099   1.0000   0.0133
 -12.500  -1.3356   0.01569   0.01064  -0.0085   1.0000   0.0137
 -12.000  -1.2929   0.01466   0.00956  -0.0067   1.0000   0.0149
 -11.500  -1.2470   0.01390   0.00877  -0.0053   1.0000   0.0159
 -11.000  -1.1998   0.01328   0.00811  -0.0041   1.0000   0.0167
 -10.500  -1.1548   0.01252   0.00733  -0.0023   1.0000   0.0184
 -10.000  -1.1097   0.01196   0.00676  -0.0004   1.0000   0.0197
  -9.500  -1.0662   0.01137   0.00616   0.0018   1.0000   0.0215
  -9.000  -1.0235   0.01087   0.00565   0.0043   1.0000   0.0235
  -8.000  -0.9066   0.00981   0.00461   0.0026   0.9972   0.0300
  -7.500  -0.8414   0.00930   0.00415   0.0003   0.9951   0.0348
  -7.000  -0.7761   0.00880   0.00370  -0.0020   0.9930   0.0420
  -6.500  -0.7137   0.00832   0.00329  -0.0035   0.9880   0.0511
  -6.000  -0.6522   0.00789   0.00293  -0.0049   0.9813   0.0627
  -5.500  -0.5976   0.00745   0.00258  -0.0046   0.9682   0.0806
  -5.000  -0.5450   0.00706   0.00228  -0.0037   0.9504   0.1023
  -4.500  -0.4925   0.00668   0.00198  -0.0029   0.9279   0.1312
  -4.000  -0.4392   0.00635   0.00172  -0.0022   0.9010   0.1662
  -3.500  -0.3856   0.00603   0.00148  -0.0017   0.8688   0.2093
  -3.000  -0.3315   0.00577   0.00129  -0.0012   0.8310   0.2558
  -2.500  -0.2770   0.00556   0.00112  -0.0008   0.7896   0.3041
  -2.000  -0.2221   0.00540   0.00100  -0.0006   0.7436   0.3539
  -1.500  -0.1668   0.00527   0.00090  -0.0004   0.6979   0.4039
  -1.000  -0.1113   0.00519   0.00084  -0.0002   0.6497   0.4537
  -0.500  -0.0557   0.00514   0.00080  -0.0001   0.6013   0.5030
  -0.000  -0.0000   0.00513   0.00078  -0.0000   0.5523   0.5528
   0.500   0.0557   0.00514   0.00080   0.0001   0.5028   0.6014
   1.000   0.1113   0.00519   0.00084   0.0002   0.4532   0.6497
   1.500   0.1668   0.00527   0.00090   0.0004   0.4038   0.6977
   2.000   0.2220   0.00540   0.00100   0.0006   0.3538   0.7445
   2.500   0.2770   0.00556   0.00112   0.0008   0.3044   0.7895
   3.000   0.3315   0.00577   0.00129   0.0012   0.2556   0.8312
   3.500   0.3856   0.00603   0.00148   0.0017   0.2095   0.8687
   4.000   0.4392   0.00635   0.00172   0.0022   0.1661   0.9011
   4.500   0.4925   0.00669   0.00198   0.0029   0.1310   0.9279
   5.000   0.5450   0.00706   0.00227   0.0037   0.1025   0.9505
   5.500   0.5976   0.00745   0.00258   0.0046   0.0807   0.9683
   6.000   0.6522   0.00789   0.00293   0.0049   0.0627   0.9813
   6.500   0.7138   0.00832   0.00329   0.0035   0.0511   0.9880
   7.000   0.7762   0.00880   0.00370   0.0019   0.0420   0.9930
   7.500   0.8416   0.00930   0.00415  -0.0004   0.0348   0.9951
   8.000   0.9067   0.00980   0.00461  -0.0026   0.0301   0.9972
   8.500   0.9709   0.01033   0.00512  -0.0047   0.0264   0.9992
   9.000   1.0234   0.01087   0.00565  -0.0043   0.0235   1.0000
   9.500   1.0661   0.01137   0.00615  -0.0018   0.0215   1.0000
  10.000   1.1097   0.01196   0.00676   0.0004   0.0197   1.0000
  10.500   1.1549   0.01252   0.00733   0.0023   0.0183   1.0000
  11.000   1.1999   0.01328   0.00811   0.0040   0.0167   1.0000
  11.500   1.2471   0.01390   0.00877   0.0053   0.0159   1.0000
  12.000   1.2930   0.01466   0.00956   0.0067   0.0149   1.0000
  12.500   1.3358   0.01569   0.01064   0.0084   0.0137   1.0000
  13.000   1.3805   0.01646   0.01148   0.0098   0.0133   1.0000
  13.500   1.4230   0.01735   0.01242   0.0115   0.0127   1.0000
  14.000   1.4622   0.01840   0.01351   0.0135   0.0120   1.0000
  14.500   1.4929   0.01991   0.01513   0.0165   0.0112   1.0000
  15.000   1.5208   0.02110   0.01642   0.0202   0.0110   1.0000
  15.500   1.5462   0.02252   0.01793   0.0235   0.0107   1.0000
  16.000   1.5677   0.02433   0.01985   0.0266   0.0104   1.0000
  16.500   1.5858   0.02661   0.02224   0.0292   0.0101   1.0000
  17.000   1.5988   0.02962   0.02537   0.0311   0.0099   1.0000
  17.500   1.6052   0.03369   0.02959   0.0319   0.0096   1.0000
  18.000   1.6008   0.03956   0.03564   0.0311   0.0093   1.0000
  18.500   1.5814   0.04810   0.04442   0.0281   0.0090   1.0000
  19.000   1.5414   0.06036   0.05696   0.0225   0.0089   1.0000
  19.500   1.4854   0.07590   0.07279   0.0147   0.0089   1.0000
  20.000   1.4157   0.09439   0.09159   0.0053   0.0090   1.0000
  20.500   1.3339   0.11583   0.11333  -0.0059   0.0091   1.0000
  21.000   1.2468   0.13961   0.13741  -0.0190   0.0093   1.0000
  21.500   1.1785   0.16156   0.15959  -0.0322   0.0093   1.0000
  22.000   1.1401   0.17857   0.17676  -0.0431   0.0091   1.0000
  22.500   1.1126   0.19403   0.19236  -0.0534   0.0088   1.0000
  23.000   1.0999   0.20642   0.20486  -0.0619   0.0087   1.0000
  23.500   1.0872   0.21952   0.21807  -0.0710   0.0085   1.0000
  24.000   1.0635   0.23711   0.23582  -0.0829   0.0081   1.0000
  24.500   0.9757   0.29548   0.29433  -0.1116   0.0051   1.0000
  25.000   0.9900   0.30307   0.30193  -0.1168   0.0051   1.0000
