  
       XFOIL         Version 6.99
  
 Calculated polar for: NACA 0012                                       
  
 1 1 Reynolds number fixed          Mach number fixed         
  
 xtrf =   1.000 (top)        1.000 (bottom)  
 Mach =   0.000     Re =     2.332 e 6     Ncrit =   9.000
  
   alpha    CL        CD       CDp       CM     Top_Xtr  Bot_Xtr
  ------ -------- --------- --------- -------- -------- --------
 -15.000  -1.7719   0.03583   0.03127   0.0188   0.9999   0.0093
 -14.500  -1.7598   0.03296   0.02828   0.0224   0.9999   0.0095
 -14.000  -1.7433   0.03051   0.02571   0.0260   0.9999   0.0098
 -13.500  -1.7231   0.02840   0.02350   0.0295   0.9999   0.0099
 -13.000  -1.7029   0.02631   0.02129   0.0333   0.9999   0.0102
 -12.500  -1.6828   0.02424   0.01912   0.0375   0.9999   0.0109
 -11.500  -1.6282   0.02187   0.01607   0.0449   0.7294   0.0120
 -11.000  -1.5956   0.02073   0.01483   0.0481   0.7241   0.0124
 -10.500  -1.5624   0.01961   0.01361   0.0514   0.7206   0.0129
 -10.000  -1.5290   0.01844   0.01238   0.0548   0.7174   0.0139
  -9.500  -1.4917   0.01755   0.01143   0.0577   0.7140   0.0147
  -9.000  -1.4520   0.01681   0.01063   0.0604   0.7107   0.0154
  -8.500  -1.4131   0.01593   0.00970   0.0632   0.7078   0.0169
  -8.000  -1.3720   0.01526   0.00899   0.0658   0.7045   0.0182
  -7.500  -1.3316   0.01466   0.00835   0.0688   0.7015   0.0193
  -7.000  -1.2873   0.01398   0.00767   0.0709   0.6979   0.0216
  -6.500  -1.2408   0.01343   0.00709   0.0727   0.6946   0.0238
  -6.000  -1.1934   0.01284   0.00652   0.0743   0.6912   0.0266
  -5.500  -1.1453   0.01226   0.00596   0.0758   0.6874   0.0304
  -5.000  -1.0963   0.01174   0.00545   0.0772   0.6840   0.0353
  -4.500  -1.0466   0.01121   0.00497   0.0785   0.6792   0.0415
  -4.000  -0.9964   0.01070   0.00451   0.0797   0.6739   0.0501
  -3.500  -0.9456   0.01022   0.00409   0.0808   0.6680   0.0611
  -3.000  -0.8950   0.00971   0.00368   0.0819   0.6604   0.0784
  -2.500  -0.8439   0.00923   0.00331   0.0830   0.6521   0.1005
  -2.000  -0.7933   0.00873   0.00293   0.0841   0.6416   0.1319
  -1.500  -0.7423   0.00824   0.00260   0.0851   0.6299   0.1706
  -1.000  -0.6918   0.00773   0.00228   0.0863   0.6165   0.2199
  -0.500  -0.6414   0.00723   0.00199   0.0874   0.6010   0.2771
  -0.000  -0.5904   0.00678   0.00174   0.0885   0.5831   0.3374
   0.500  -0.5396   0.00633   0.00150   0.0895   0.5630   0.4071
   1.000  -0.4888   0.00587   0.00128   0.0906   0.5403   0.4872
   1.500  -0.4407   0.00515   0.00097   0.0921   0.5174   0.6114
   2.000  -0.3909   0.00465   0.00085   0.0935   0.4905   0.7462
   2.500  -0.3324   0.00477   0.00087   0.0931   0.4612   0.7561
   3.000  -0.2745   0.00488   0.00091   0.0929   0.4301   0.7631
   3.500  -0.2161   0.00505   0.00096   0.0925   0.3953   0.7675
   4.000  -0.1577   0.00526   0.00104   0.0921   0.3592   0.7700
   4.500  -0.0996   0.00543   0.00108   0.0917   0.3200   0.7731
   5.000  -0.0416   0.00561   0.00116   0.0913   0.2816   0.7761
   5.500   0.0163   0.00587   0.00129   0.0909   0.2412   0.7785
   6.000   0.0741   0.00616   0.00145   0.0904   0.2010   0.7806
   6.500   0.1316   0.00649   0.00165   0.0900   0.1643   0.7834
   7.000   0.1890   0.00685   0.00187   0.0896   0.1308   0.7851
   7.500   0.2464   0.00717   0.00208   0.0891   0.1031   0.7848
   8.000   0.3037   0.00750   0.00232   0.0886   0.0816   0.7844
   8.500   0.3606   0.00786   0.00259   0.0882   0.0648   0.7840
   9.000   0.4176   0.00821   0.00288   0.0877   0.0531   0.7835
   9.500   0.4742   0.00858   0.00321   0.0873   0.0443   0.7831
  10.000   0.5305   0.00897   0.00357   0.0868   0.0377   0.7827
  10.500   0.5866   0.00939   0.00397   0.0864   0.0326   0.7823
  11.000   0.6420   0.00987   0.00443   0.0861   0.0282   0.7820
  11.500   0.6975   0.01030   0.00487   0.0857   0.0257   0.7816
  12.000   0.7522   0.01082   0.00541   0.0854   0.0232   0.7813
  12.500   0.8064   0.01137   0.00597   0.0851   0.0210   0.7810
  13.000   0.8600   0.01197   0.00661   0.0848   0.0194   0.7808
  13.500   0.9132   0.01258   0.00725   0.0846   0.0180   0.7806
  14.000   0.9644   0.01343   0.00815   0.0845   0.0164   0.7804
  14.500   1.0165   0.01406   0.00884   0.0843   0.0157   0.7803
  15.000   1.0670   0.01484   0.00966   0.0841   0.0148   0.7802
  15.500   1.1142   0.01599   0.01088   0.0842   0.0136   0.7801
  16.000   1.1622   0.01692   0.01190   0.0842   0.0132   0.7801
  16.500   1.2086   0.01794   0.01299   0.0843   0.0127   0.7802
  17.000   1.2524   0.01913   0.01426   0.0844   0.0122   0.7803
  17.500   1.2919   0.02063   0.01584   0.0846   0.0116   0.7805
  18.000   1.3195   0.02310   0.01848   0.0849   0.0109   0.7808
  18.500   1.3383   0.02669   0.02225   0.0826   0.0107   0.7814
  19.000   1.3522   0.03172   0.02743   0.0781   0.0106   0.7821
  19.500   1.3537   0.03784   0.03371   0.0740   0.0104   0.7829
  20.000   1.3390   0.04609   0.04215   0.0691   0.0103   0.7837
  20.500   1.3044   0.05728   0.05355   0.0628   0.0102   0.7845
  21.000   1.2474   0.07230   0.06883   0.0545   0.0102   0.7853
  21.500   1.1632   0.09252   0.08933   0.0436   0.0103   0.7859
  22.000   1.0703   0.11549   0.11258   0.0314   0.0104   0.7863
  22.500   1.0074   0.13460   0.13188   0.0211   0.0104   0.7868
  24.500   0.9021   0.19123   0.18901  -0.0122   0.0095   0.7946
  25.000   0.8898   0.20399   0.20187  -0.0203   0.0092   0.7973
