  
       XFOIL         Version 6.99
  
 Calculated polar for: NACA 0012                                       
  
 1 1 Reynolds number fixed          Mach number fixed         
  
 xtrf =   1.000 (top)        1.000 (bottom)  
 Mach =   0.000     Re =     1.521 e 6     Ncrit =   9.000
  
   alpha    CL        CD       CDp       CM     Top_Xtr  Bot_Xtr
  ------ -------- --------- --------- -------- -------- --------
 -15.000  -1.7191   0.05047   0.04609   0.0217   0.9998   0.0104
 -14.500  -1.7217   0.04551   0.04097   0.0246   0.9998   0.0107
 -14.000  -1.7163   0.04163   0.03694   0.0279   0.9998   0.0110
 -13.500  -1.7060   0.03839   0.03356   0.0315   0.9998   0.0113
 -13.000  -1.6925   0.03556   0.03059   0.0352   0.9998   0.0117
 -12.500  -1.6776   0.03358   0.02802   0.0395   0.7439   0.0120
 -12.000  -1.6593   0.03126   0.02551   0.0433   0.7341   0.0123
 -11.500  -1.6457   0.02858   0.02267   0.0480   0.7301   0.0130
 -11.000  -1.6210   0.02677   0.02074   0.0517   0.7259   0.0136
 -10.500  -1.5927   0.02524   0.01910   0.0552   0.7225   0.0142
 -10.000  -1.5612   0.02391   0.01766   0.0584   0.7192   0.0148
  -9.500  -1.5316   0.02241   0.01604   0.0620   0.7159   0.0157
  -9.000  -1.4980   0.02118   0.01475   0.0652   0.7126   0.0169
  -8.500  -1.4612   0.02019   0.01368   0.0681   0.7092   0.0179
  -8.000  -1.4243   0.01916   0.01255   0.0710   0.7057   0.0191
  -7.500  -1.3859   0.01818   0.01155   0.0738   0.7022   0.0208
  -7.000  -1.3442   0.01748   0.01076   0.0761   0.6986   0.0220
  -6.500  -1.3042   0.01651   0.00980   0.0788   0.6949   0.0248
  -6.000  -1.2612   0.01580   0.00904   0.0811   0.6911   0.0271
  -5.500  -1.2181   0.01505   0.00829   0.0834   0.6875   0.0306
  -5.000  -1.1741   0.01432   0.00758   0.0856   0.6830   0.0352
  -4.500  -1.1294   0.01366   0.00693   0.0877   0.6793   0.0409
  -4.000  -1.0847   0.01301   0.00633   0.0899   0.6744   0.0486
  -3.500  -1.0418   0.01241   0.00578   0.0926   0.6691   0.0590
  -3.000  -0.9970   0.01183   0.00527   0.0949   0.6637   0.0737
  -2.500  -0.9507   0.01121   0.00476   0.0968   0.6566   0.0945
  -2.000  -0.9044   0.01059   0.00428   0.0988   0.6492   0.1243
  -1.500  -0.8588   0.00992   0.00381   0.1008   0.6400   0.1654
  -1.000  -0.8132   0.00927   0.00338   0.1029   0.6302   0.2156
  -0.500  -0.7681   0.00862   0.00296   0.1051   0.6184   0.2753
  -0.000  -0.7228   0.00798   0.00259   0.1073   0.6054   0.3429
   0.500  -0.6776   0.00732   0.00222   0.1095   0.5909   0.4220
   1.000  -0.6341   0.00653   0.00182   0.1119   0.5749   0.5251
   1.500  -0.5981   0.00532   0.00134   0.1160   0.5578   0.7394
   2.000  -0.5408   0.00548   0.00140   0.1160   0.5370   0.7538
   2.500  -0.4834   0.00558   0.00147   0.1160   0.5138   0.7632
   3.000  -0.4254   0.00576   0.00156   0.1158   0.4887   0.7687
   3.500  -0.3674   0.00585   0.00156   0.1156   0.4609   0.7731
   4.000  -0.3093   0.00599   0.00163   0.1153   0.4304   0.7771
   4.500  -0.2510   0.00618   0.00173   0.1150   0.3975   0.7802
   5.000  -0.1928   0.00639   0.00184   0.1146   0.3619   0.7828
   5.500  -0.1347   0.00665   0.00197   0.1142   0.3245   0.7850
   6.000  -0.0768   0.00691   0.00212   0.1138   0.2860   0.7876
   6.500  -0.0194   0.00709   0.00217   0.1134   0.2439   0.7908
   7.000   0.0386   0.00735   0.00229   0.1128   0.2049   0.7899
   7.500   0.0964   0.00770   0.00248   0.1121   0.1649   0.7887
   8.000   0.1540   0.00808   0.00274   0.1115   0.1309   0.7876
   8.500   0.2115   0.00851   0.00304   0.1109   0.1025   0.7866
   9.000   0.2685   0.00883   0.00328   0.1103   0.0814   0.7862
   9.500   0.3253   0.00919   0.00357   0.1098   0.0651   0.7858
  10.000   0.3819   0.00956   0.00390   0.1092   0.0537   0.7853
  10.500   0.4382   0.00997   0.00428   0.1087   0.0449   0.7848
  11.000   0.4943   0.01041   0.00471   0.1081   0.0387   0.7843
  11.500   0.5499   0.01090   0.00520   0.1076   0.0337   0.7837
  12.000   0.6048   0.01148   0.00579   0.1071   0.0296   0.7832
  12.500   0.6598   0.01199   0.00633   0.1066   0.0270   0.7826
  13.000   0.7137   0.01267   0.00705   0.1061   0.0245   0.7821
  13.500   0.7674   0.01331   0.00772   0.1057   0.0225   0.7815
  14.000   0.8194   0.01419   0.00867   0.1052   0.0207   0.7810
  14.500   0.8718   0.01492   0.00948   0.1048   0.0195   0.7805
  15.000   0.9217   0.01597   0.01058   0.1043   0.0180   0.7800
  15.500   0.9706   0.01706   0.01178   0.1039   0.0170   0.7796
  16.000   1.0190   0.01812   0.01293   0.1034   0.0162   0.7791
  16.500   1.0648   0.01943   0.01434   0.1028   0.0154   0.7787
  17.000   1.1006   0.02195   0.01702   0.1019   0.0143   0.7784
  17.500   1.1410   0.02394   0.01916   0.1001   0.0140   0.7780
  18.000   1.1667   0.02813   0.02355   0.0948   0.0136   0.7776
  18.500   1.1742   0.03403   0.02962   0.0895   0.0133   0.7773
  19.000   1.1692   0.04125   0.03701   0.0844   0.0131   0.7770
  19.500   1.1498   0.05046   0.04641   0.0786   0.0129   0.7767
  20.000   1.1137   0.06228   0.05844   0.0716   0.0128   0.7763
  20.500   1.0675   0.07620   0.07257   0.0638   0.0127   0.7760
  21.000   1.0152   0.09174   0.08831   0.0553   0.0127   0.7757
  21.500   0.9668   0.10727   0.10403   0.0470   0.0127   0.7755
  22.000   0.9260   0.12216   0.11907   0.0392   0.0125   0.7752
  22.500   0.8959   0.13566   0.13268   0.0320   0.0124   0.7750
  23.000   0.8717   0.14862   0.14574   0.0248   0.0121   0.7747
  23.500   0.8424   0.16330   0.16055   0.0166   0.0116   0.7745
