  
       XFOIL         Version 6.99
  
 Calculated polar for: NACA 0012                                       
  
 1 1 Reynolds number fixed          Mach number fixed         
  
 xtrf =   1.000 (top)        1.000 (bottom)  
 Mach =   0.000     Re =     1.521 e 6     Ncrit =   9.000
  
   alpha    CL        CD       CDp       CM     Top_Xtr  Bot_Xtr
  ------ -------- --------- --------- -------- -------- --------
 -15.000  -0.1731   0.04284   0.03856  -0.2035   0.7607   0.0365
 -14.500  -0.1278   0.04344   0.03913  -0.2036   0.7612   0.0405
 -14.000  -0.0806   0.04400   0.03969  -0.2038   0.7617   0.0466
 -13.500  -0.0335   0.04462   0.04031  -0.2039   0.7623   0.0540
 -13.000   0.0139   0.04527   0.04097  -0.2038   0.7628   0.0636
 -12.500   0.0616   0.04595   0.04167  -0.2036   0.7634   0.0758
 -12.000   0.1091   0.04665   0.04240  -0.2032   0.7639   0.0914
 -11.500   0.1570   0.04736   0.04318  -0.2029   0.7643   0.1131
 -11.000   0.2042   0.04811   0.04399  -0.2023   0.7647   0.1358
 -10.500   0.2513   0.04888   0.04485  -0.2017   0.7650   0.1652
 -10.000   0.2979   0.04969   0.04574  -0.2008   0.7652   0.1945
  -9.500   0.3440   0.05053   0.04666  -0.1998   0.7656   0.2233
  -9.000   0.3905   0.05141   0.04762  -0.1988   0.7663   0.2531
  -8.500   0.4393   0.05238   0.04867  -0.1981   0.7675   0.2836
  -7.500   0.5299   0.05342   0.04986  -0.1953   0.7656   0.3345
  -7.000   0.5776   0.05388   0.05038  -0.1941   0.7644   0.3575
  -6.500   0.6272   0.05428   0.05084  -0.1931   0.7632   0.3798
  -6.000   0.6806   0.05450   0.05113  -0.1925   0.7619   0.4001
  -5.500   0.7470   0.05414   0.05084  -0.1937   0.7602   0.4208
  -5.000   0.8717   0.05463   0.05142  -0.2027   0.7569   0.4473
  -4.500   0.8919   0.05001   0.04683  -0.1968   0.7414   0.4590
  -3.500   0.9923   0.04735   0.04333  -0.1945   0.5241   0.4879
  -3.000   1.0293   0.04766   0.04295  -0.1914   0.3891   0.4994
  -2.500   1.0760   0.04731   0.04210  -0.1895   0.2911   0.5105
  -2.000   1.1192   0.04738   0.04182  -0.1871   0.2188   0.5217
  -1.500   1.1653   0.04722   0.04135  -0.1851   0.1601   0.5313
  -0.500   1.2514   0.04760   0.04131  -0.1801   0.0862   0.5492
  -0.000   1.2938   0.04791   0.04152  -0.1775   0.0662   0.5578
   0.500   1.3360   0.04826   0.04179  -0.1749   0.0524   0.5651
   1.000   1.3780   0.04864   0.04212  -0.1723   0.0430   0.5723
   1.500   1.4198   0.04902   0.04247  -0.1696   0.0361   0.5790
   2.000   1.4614   0.04939   0.04280  -0.1668   0.0306   0.5846
   2.500   1.5024   0.04984   0.04326  -0.1641   0.0272   0.5908
   3.000   1.5425   0.05033   0.04378  -0.1612   0.0243   0.5962
   3.500   1.5812   0.05091   0.04435  -0.1581   0.0214   0.6012
   4.000   1.6193   0.05160   0.04509  -0.1550   0.0199   0.6058
   4.500   1.6557   0.05238   0.04589  -0.1516   0.0182   0.6098
   5.000   1.6905   0.05328   0.04686  -0.1481   0.0167   0.6137
   5.500   1.7250   0.05424   0.04788  -0.1446   0.0158   0.6177
   6.000   1.7570   0.05539   0.04907  -0.1409   0.0147   0.6214
   6.500   1.7844   0.05690   0.05069  -0.1366   0.0137   0.6240
   7.000   1.8130   0.05838   0.05227  -0.1326   0.0131   0.6264
   7.500   1.8397   0.06002   0.05399  -0.1285   0.0124   0.6288
   8.000   1.8635   0.06188   0.05594  -0.1242   0.0118   0.6315
   8.500   1.8795   0.06446   0.05864  -0.1191   0.0110   0.6349
   9.000   1.8979   0.06690   0.06122  -0.1145   0.0107   0.6377
   9.500   1.9124   0.06975   0.06421  -0.1097   0.0104   0.6390
  10.000   1.9256   0.07271   0.06732  -0.1050   0.0100   0.6402
  10.500   1.9351   0.07608   0.07083  -0.1004   0.0097   0.6414
  11.000   1.9405   0.07998   0.07487  -0.0957   0.0093   0.6425
  11.500   1.9381   0.08488   0.07994  -0.0911   0.0090   0.6439
  12.000   1.9238   0.09144   0.08672  -0.0868   0.0086   0.6453
  12.500   1.8969   0.10024   0.09580  -0.0839   0.0084   0.6468
  13.000   1.8853   0.10777   0.10355  -0.0830   0.0083   0.6492
  13.500   1.8680   0.11674   0.11275  -0.0840   0.0082   0.6520
  14.000   1.8442   0.12723   0.12350  -0.0874   0.0082   0.6525
  14.500   1.8143   0.13921   0.13575  -0.0935   0.0081   0.6529
  15.000   1.7792   0.15282   0.14964  -0.1023   0.0080   0.6533
  15.500   1.7384   0.16831   0.16542  -0.1139   0.0080   0.6535
  16.000   1.6941   0.18541   0.18281  -0.1280   0.0080   0.6537
  16.500   1.6531   0.20254   0.20020  -0.1430   0.0079   0.6539
  17.000   1.6189   0.21885   0.21673  -0.1578   0.0079   0.6541
  17.500   1.5916   0.23431   0.23238  -0.1722   0.0078   0.6543
  18.000   1.5700   0.24892   0.24717  -0.1859   0.0076   0.6546
  18.500   1.5434   0.26640   0.26486  -0.2025   0.0074   0.6548
  19.500   0.8966   0.32374   0.32268  -0.1655   0.0050   0.6417
  20.000   0.8985   0.32853   0.32749  -0.1670   0.0047   0.6429
  20.500   0.9005   0.33280   0.33178  -0.1684   0.0046   0.6444
  21.000   0.8999   0.34077   0.33976  -0.1702   0.0045   0.6458
  21.500   0.8993   0.35075   0.34975  -0.1725   0.0038   0.6473
  22.000   0.9002   0.35644   0.35546  -0.1742   0.0035   0.6503
  22.500   0.9011   0.36141   0.36045  -0.1758   0.0033   0.6525
  23.000   0.9017   0.36579   0.36484  -0.1772   0.0031   0.6532
  23.500   0.9012   0.37215   0.37123  -0.1788   0.0030   0.6540
  24.000   0.9005   0.38230   0.38139  -0.1808   0.0027   0.6546
  24.500   0.9003   0.38800   0.38711  -0.1824   0.0023   0.6556
  25.000   0.9000   0.39294   0.39207  -0.1840   0.0021   0.6570
