  
       XFOIL         Version 6.99
  
 Calculated polar for: NACA 0012                                       
  
 1 1 Reynolds number fixed          Mach number fixed         
  
 xtrf =   1.000 (top)        1.000 (bottom)  
 Mach =   0.000     Re =     1.521 e 6     Ncrit =   9.000
  
   alpha    CL        CD       CDp       CM     Top_Xtr  Bot_Xtr
  ------ -------- --------- --------- -------- -------- --------
 -15.000  -1.4258   0.02342   0.01869  -0.0320   1.0000   0.0131
 -14.500  -1.4018   0.02192   0.01706  -0.0285   1.0000   0.0136
 -14.000  -1.3694   0.02078   0.01582  -0.0257   1.0000   0.0139
 -13.500  -1.3407   0.01896   0.01388  -0.0226   1.0000   0.0149
 -13.000  -1.3014   0.01784   0.01270  -0.0207   1.0000   0.0157
 -12.500  -1.2591   0.01690   0.01167  -0.0190   1.0000   0.0165
 -12.000  -1.2165   0.01593   0.01061  -0.0173   1.0000   0.0173
 -11.500  -1.1746   0.01492   0.00957  -0.0153   1.0000   0.0188
 -11.000  -1.1307   0.01424   0.00884  -0.0135   1.0000   0.0200
 -10.500  -1.0901   0.01342   0.00798  -0.0109   1.0000   0.0217
 -10.000  -1.0493   0.01278   0.00731  -0.0083   1.0000   0.0234
  -9.500  -1.0098   0.01217   0.00666  -0.0053   1.0000   0.0254
  -8.500  -0.8944   0.01091   0.00541  -0.0070   0.9967   0.0323
  -8.000  -0.8295   0.01032   0.00485  -0.0093   0.9946   0.0376
  -7.500  -0.7637   0.00975   0.00432  -0.0118   0.9913   0.0448
  -7.000  -0.6960   0.00921   0.00382  -0.0146   0.9871   0.0543
  -6.500  -0.6307   0.00865   0.00336  -0.0169   0.9822   0.0697
  -6.000  -0.5740   0.00816   0.00296  -0.0171   0.9712   0.0890
  -5.500  -0.5210   0.00770   0.00260  -0.0164   0.9568   0.1147
  -4.500  -0.4160   0.00683   0.00198  -0.0149   0.9228   0.1883
  -4.000  -0.3624   0.00644   0.00172  -0.0143   0.9043   0.2345
  -3.500  -0.3081   0.00609   0.00151  -0.0139   0.8849   0.2844
  -3.000  -0.2534   0.00578   0.00133  -0.0136   0.8644   0.3361
  -2.500  -0.1983   0.00553   0.00119  -0.0133   0.8427   0.3870
  -2.000  -0.1428   0.00532   0.00108  -0.0131   0.8187   0.4370
  -1.500  -0.0874   0.00517   0.00100  -0.0128   0.7901   0.4865
  -1.000  -0.0319   0.00506   0.00094  -0.0125   0.7528   0.5338
  -0.500   0.0223   0.00511   0.00090  -0.0120   0.6804   0.5791
  -0.000   0.0766   0.00524   0.00093  -0.0116   0.6134   0.6229
   0.500   0.1317   0.00539   0.00099  -0.0113   0.5542   0.6620
   1.000   0.1869   0.00557   0.00106  -0.0110   0.4968   0.6946
   1.500   0.2419   0.00576   0.00115  -0.0108   0.4407   0.7227
   2.000   0.2961   0.00592   0.00127  -0.0103   0.3850   0.7636
   2.500   0.3487   0.00607   0.00144  -0.0095   0.3297   0.8285
   3.000   0.3999   0.00628   0.00167  -0.0084   0.2775   0.8947
   3.500   0.4510   0.00663   0.00193  -0.0071   0.2272   0.9398
   4.000   0.5042   0.00708   0.00222  -0.0064   0.1800   0.9666
   4.500   0.5614   0.00761   0.00255  -0.0067   0.1374   0.9827
   5.000   0.6290   0.00815   0.00293  -0.0094   0.1029   0.9887
   5.500   0.6948   0.00870   0.00333  -0.0117   0.0780   0.9939
   6.000   0.7638   0.00924   0.00376  -0.0148   0.0604   0.9967
   6.500   0.8309   0.00981   0.00424  -0.0175   0.0476   0.9995
   7.000   0.8796   0.01031   0.00469  -0.0161   0.0404   1.0000
   7.500   0.9238   0.01079   0.00516  -0.0138   0.0353   1.0000
   8.000   0.9686   0.01131   0.00568  -0.0117   0.0314   1.0000
   8.500   1.0134   0.01192   0.00629  -0.0096   0.0279   1.0000
   9.000   1.0593   0.01251   0.00688  -0.0078   0.0252   1.0000
   9.500   1.1057   0.01319   0.00760  -0.0062   0.0231   1.0000
  10.000   1.1523   0.01391   0.00833  -0.0047   0.0213   1.0000
  10.500   1.1977   0.01476   0.00923  -0.0031   0.0196   1.0000
  11.000   1.2438   0.01550   0.01002  -0.0017   0.0183   1.0000
  11.500   1.2851   0.01664   0.01120   0.0003   0.0169   1.0000
  12.000   1.3281   0.01754   0.01220   0.0020   0.0162   1.0000
  12.500   1.3690   0.01852   0.01325   0.0040   0.0154   1.0000
  13.000   1.4058   0.01969   0.01449   0.0064   0.0146   1.0000
  13.500   1.4273   0.02149   0.01642   0.0109   0.0137   1.0000
  14.000   1.4562   0.02274   0.01777   0.0142   0.0134   1.0000
  14.500   1.4806   0.02436   0.01952   0.0175   0.0129   1.0000
  15.000   1.5007   0.02641   0.02170   0.0205   0.0125   1.0000
  15.500   1.5161   0.02905   0.02446   0.0230   0.0121   1.0000
  16.000   1.5239   0.03268   0.02824   0.0249   0.0117   1.0000
  16.500   1.5163   0.03843   0.03420   0.0254   0.0113   1.0000
  17.000   1.4964   0.04678   0.04282   0.0232   0.0111   1.0000
  17.500   1.4821   0.05550   0.05178   0.0195   0.0110   1.0000
  18.000   1.4505   0.06737   0.06390   0.0138   0.0109   1.0000
  18.500   1.3969   0.08327   0.08010   0.0058   0.0109   1.0000
  19.000   1.3276   0.10245   0.09957  -0.0039   0.0110   1.0000
  19.500   1.2607   0.12209   0.11948  -0.0142   0.0110   1.0000
  20.000   1.2107   0.13951   0.13711  -0.0238   0.0110   1.0000
  20.500   1.1744   0.15510   0.15288  -0.0328   0.0109   1.0000
  21.000   1.1436   0.17033   0.16828  -0.0422   0.0108   1.0000
  21.500   1.1203   0.18472   0.18282  -0.0515   0.0106   1.0000
  22.000   1.0903   0.20172   0.20001  -0.0627   0.0104   1.0000
  23.000   0.9562   0.28537   0.28396  -0.1071   0.0073   1.0000
  23.500   0.9725   0.29015   0.28874  -0.1113   0.0070   1.0000
  24.000   0.9886   0.29453   0.29312  -0.1154   0.0069   1.0000
  24.500   1.0021   0.30256   0.30116  -0.1206   0.0068   1.0000
  25.000   1.0173   0.31254   0.31115  -0.1270   0.0058   1.0000
