  
       XFOIL         Version 6.99
  
 Calculated polar for: NACA 0012                                       
  
 1 1 Reynolds number fixed          Mach number fixed         
  
 xtrf =   1.000 (top)        1.000 (bottom)  
 Mach =   0.000     Re =     1.521 e 6     Ncrit =   9.000
  
   alpha    CL        CD       CDp       CM     Top_Xtr  Bot_Xtr
  ------ -------- --------- --------- -------- -------- --------
 -15.000  -0.2760   0.03689   0.03252  -0.1923   0.7665   0.0317
 -14.500  -0.2157   0.03726   0.03286  -0.1947   0.7677   0.0360
 -14.000  -0.1513   0.03810   0.03367  -0.1972   0.7690   0.0413
 -13.500  -0.0896   0.03906   0.03463  -0.1993   0.7696   0.0484
 -13.000  -0.0353   0.03990   0.03547  -0.2001   0.7698   0.0574
 -12.500   0.0183   0.04062   0.03622  -0.2008   0.7700   0.0693
 -12.000   0.0712   0.04132   0.03695  -0.2012   0.7701   0.0839
 -11.500   0.1242   0.04198   0.03766  -0.2015   0.7701   0.1037
 -11.000   0.1767   0.04264   0.03839  -0.2017   0.7702   0.1269
 -10.500   0.2292   0.04329   0.03913  -0.2019   0.7703   0.1563
 -10.000   0.2815   0.04395   0.03987  -0.2019   0.7703   0.1873
  -9.500   0.3333   0.04463   0.04064  -0.2017   0.7703   0.2188
  -9.000   0.3850   0.04532   0.04141  -0.2015   0.7704   0.2506
  -8.500   0.4364   0.04603   0.04219  -0.2011   0.7704   0.2803
  -8.000   0.4877   0.04672   0.04297  -0.2007   0.7704   0.3097
  -7.000   0.5815   0.04750   0.04389  -0.1982   0.7704   0.3598
  -6.500   0.6279   0.04784   0.04430  -0.1968   0.7703   0.3825
  -6.000   0.6738   0.04815   0.04467  -0.1953   0.7703   0.4024
  -5.500   0.7175   0.04817   0.04476  -0.1934   0.7701   0.4222
  -5.000   0.7553   0.04787   0.04453  -0.1906   0.7698   0.4393
  -4.500   0.7912   0.04341   0.04012  -0.1866   0.7501   0.4556
  -4.000   0.9363   0.03519   0.03193  -0.1974   0.7308   0.4797
  -3.500   0.9570   0.03690   0.03373  -0.1924   0.7232   0.4921
  -3.000   0.9777   0.03739   0.03305  -0.1873   0.4778   0.5035
  -2.500   1.0111   0.03795   0.03300  -0.1835   0.3621   0.5147
  -2.000   1.0533   0.03801   0.03268  -0.1808   0.2799   0.5266
  -1.500   1.0933   0.03835   0.03267  -0.1779   0.2106   0.5366
  -1.000   1.1343   0.03867   0.03272  -0.1751   0.1556   0.5470
  -0.500   1.1775   0.03886   0.03268  -0.1725   0.1143   0.5560
  -0.000   1.2202   0.03914   0.03280  -0.1700   0.0849   0.5648
   0.500   1.2622   0.03954   0.03308  -0.1673   0.0652   0.5724
   1.000   1.3042   0.04000   0.03349  -0.1646   0.0529   0.5800
   1.500   1.3460   0.04048   0.03391  -0.1620   0.0434   0.5867
   2.000   1.3876   0.04099   0.03440  -0.1593   0.0366   0.5933
   2.500   1.4284   0.04153   0.03491  -0.1565   0.0313   0.5993
   3.000   1.4687   0.04210   0.03546  -0.1536   0.0271   0.6047
   3.500   1.5089   0.04274   0.03614  -0.1508   0.0247   0.6098
   4.000   1.5474   0.04343   0.03684  -0.1477   0.0217   0.6144
   4.500   1.5860   0.04420   0.03765  -0.1447   0.0202   0.6190
   5.000   1.6221   0.04509   0.03855  -0.1413   0.0180   0.6231
   5.500   1.6584   0.04602   0.03957  -0.1381   0.0172   0.6267
   6.000   1.6929   0.04709   0.04068  -0.1347   0.0160   0.6298
   6.500   1.7230   0.04847   0.04213  -0.1307   0.0145   0.6328
   7.000   1.7553   0.04974   0.04348  -0.1272   0.0140   0.6365
   7.500   1.7852   0.05118   0.04500  -0.1234   0.0134   0.6397
   8.000   1.8125   0.05283   0.04673  -0.1194   0.0127   0.6417
   8.500   1.8333   0.05503   0.04904  -0.1147   0.0118   0.6433
   9.000   1.8512   0.05754   0.05170  -0.1100   0.0114   0.6450
   9.500   1.8708   0.05992   0.05421  -0.1056   0.0111   0.6469
  10.000   1.8880   0.06253   0.05695  -0.1011   0.0107   0.6495
  10.500   1.9008   0.06563   0.06018  -0.0965   0.0103   0.6529
  11.000   1.9108   0.06907   0.06374  -0.0919   0.0099   0.6546
  11.500   1.9115   0.07351   0.06835  -0.0871   0.0095   0.6554
  12.000   1.8957   0.07997   0.07505  -0.0819   0.0091   0.6562
  12.500   1.8894   0.08576   0.08104  -0.0782   0.0090   0.6572
  13.000   1.8813   0.09225   0.08774  -0.0756   0.0088   0.6582
  13.500   1.8661   0.10034   0.09607  -0.0747   0.0087   0.6593
  14.000   1.8455   0.10988   0.10585  -0.0758   0.0086   0.6605
  14.500   1.8182   0.12118   0.11742  -0.0796   0.0085   0.6616
  15.000   1.7846   0.13415   0.13068  -0.0861   0.0084   0.6626
  15.500   1.7438   0.14903   0.14585  -0.0955   0.0084   0.6636
  16.000   1.6983   0.16573   0.16284  -0.1077   0.0083   0.6642
  16.500   1.6511   0.18375   0.18113  -0.1222   0.0083   0.6648
  17.000   1.6108   0.20107   0.19870  -0.1369   0.0083   0.6654
  17.500   1.5773   0.21752   0.21535  -0.1513   0.0082   0.6663
  18.000   1.5520   0.23266   0.23067  -0.1649   0.0080   0.6666
  18.500   1.5292   0.24794   0.24612  -0.1789   0.0079   0.6669
  19.000   1.5095   0.26328   0.26161  -0.1930   0.0076   0.6671
  20.000   0.8818   0.31716   0.31600  -0.1584   0.0053   0.6553
  20.500   0.8848   0.32133   0.32019  -0.1599   0.0051   0.6561
  21.000   0.8850   0.32870   0.32758  -0.1617   0.0050   0.6569
  21.500   0.8844   0.33918   0.33807  -0.1642   0.0042   0.6577
  22.000   0.8860   0.34484   0.34375  -0.1659   0.0038   0.6591
  22.500   0.8876   0.34985   0.34878  -0.1676   0.0036   0.6606
  23.000   0.8891   0.35431   0.35326  -0.1692   0.0035   0.6625
  23.500   0.8891   0.36136   0.36032  -0.1710   0.0034   0.6645
  24.000   0.8889   0.37136   0.37033  -0.1731   0.0030   0.6665
  24.500   0.8895   0.37715   0.37614  -0.1748   0.0026   0.6674
  25.000   0.8899   0.38224   0.38126  -0.1765   0.0024   0.6683
