  
       XFOIL         Version 6.99
  
 Calculated polar for: NACA 0012                                       
  
 1 1 Reynolds number fixed          Mach number fixed         
  
 xtrf =   1.000 (top)        1.000 (bottom)  
 Mach =   0.000     Re =     1.521 e 6     Ncrit =   9.000
  
   alpha    CL        CD       CDp       CM     Top_Xtr  Bot_Xtr
  ------ -------- --------- --------- -------- -------- --------
 -15.000  -0.2193   0.04104   0.03672  -0.1980   0.7621   0.0335
 -14.500  -0.1686   0.04144   0.03710  -0.1991   0.7629   0.0385
 -14.000  -0.1188   0.04193   0.03757  -0.1997   0.7637   0.0438
 -13.500  -0.0689   0.04248   0.03811  -0.2001   0.7646   0.0504
 -13.000  -0.0177   0.04307   0.03871  -0.2005   0.7657   0.0600
 -12.500   0.0356   0.04375   0.03942  -0.2011   0.7670   0.0726
 -12.000   0.0950   0.04473   0.04044  -0.2025   0.7684   0.0879
 -11.500   0.1619   0.04621   0.04199  -0.2050   0.7696   0.1132
 -11.000   0.2215   0.04754   0.04340  -0.2062   0.7700   0.1408
 -10.500   0.2776   0.04863   0.04456  -0.2068   0.7702   0.1700
 -10.000   0.3310   0.04961   0.04562  -0.2070   0.7704   0.1996
  -9.500   0.3828   0.05054   0.04664  -0.2068   0.7705   0.2329
  -9.000   0.4341   0.05144   0.04762  -0.2065   0.7705   0.2627
  -8.500   0.4850   0.05232   0.04858  -0.2060   0.7706   0.2917
  -8.000   0.5350   0.05310   0.04943  -0.2053   0.7706   0.3195
  -7.500   0.5811   0.05338   0.04976  -0.2040   0.7706   0.3422
  -7.000   0.6271   0.05363   0.05009  -0.2026   0.7705   0.3666
  -6.500   0.6720   0.05389   0.05043  -0.2010   0.7704   0.3868
  -6.000   0.7101   0.05388   0.05048  -0.1983   0.7702   0.4067
  -5.500   0.7002   0.05222   0.04889  -0.1886   0.7659   0.4170
  -5.000   0.7643   0.05140   0.04813  -0.1893   0.7611   0.4362
  -4.500   0.8780   0.04657   0.04335  -0.1960   0.7416   0.4606
  -4.000   0.9416   0.04421   0.04105  -0.1964   0.7302   0.4763
  -3.500   0.9309   0.04868   0.04563  -0.1874   0.7192   0.4852
  -3.000   1.0099   0.04443   0.03988  -0.1898   0.4248   0.5008
  -2.500   1.0532   0.04431   0.03922  -0.1874   0.3168   0.5122
  -2.000   1.0963   0.04432   0.03881  -0.1850   0.2366   0.5227
  -1.500   1.1416   0.04425   0.03846  -0.1828   0.1777   0.5337
  -1.000   1.1839   0.04447   0.03841  -0.1802   0.1295   0.5424
  -0.500   1.2263   0.04475   0.03850  -0.1776   0.0939   0.5516
  -0.000   1.2688   0.04508   0.03870  -0.1750   0.0720   0.5598
   0.500   1.3114   0.04538   0.03892  -0.1725   0.0569   0.5676
   1.000   1.3544   0.04567   0.03914  -0.1699   0.0455   0.5750
   1.500   1.3970   0.04600   0.03941  -0.1673   0.0374   0.5813
   2.000   1.4383   0.04647   0.03987  -0.1646   0.0322   0.5877
   2.500   1.4790   0.04699   0.04041  -0.1618   0.0285   0.5937
   3.000   1.5187   0.04756   0.04097  -0.1588   0.0251   0.5987
   3.500   1.5577   0.04818   0.04161  -0.1558   0.0227   0.6039
   4.000   1.5956   0.04887   0.04234  -0.1527   0.0205   0.6084
   4.500   1.6330   0.04965   0.04314  -0.1495   0.0188   0.6131
   5.000   1.6681   0.05056   0.04410  -0.1460   0.0171   0.6170
   5.500   1.7034   0.05151   0.04512  -0.1426   0.0162   0.6205
   6.000   1.7366   0.05259   0.04624  -0.1390   0.0151   0.6234
   6.500   1.7655   0.05397   0.04771  -0.1349   0.0139   0.6267
   7.000   1.7964   0.05530   0.04912  -0.1312   0.0134   0.6304
   7.500   1.8238   0.05692   0.05083  -0.1271   0.0127   0.6334
   8.000   1.8475   0.05885   0.05285  -0.1228   0.0121   0.6353
   8.500   1.8642   0.06134   0.05547  -0.1177   0.0113   0.6369
   9.000   1.8828   0.06375   0.05802  -0.1131   0.0109   0.6385
   9.500   1.9008   0.06625   0.06066  -0.1086   0.0106   0.6405
  10.000   1.9128   0.06938   0.06393  -0.1038   0.0103   0.6429
  10.500   1.9243   0.07260   0.06728  -0.0992   0.0099   0.6461
  11.000   1.9291   0.07658   0.07141  -0.0944   0.0096   0.6484
  11.500   1.9311   0.08094   0.07594  -0.0899   0.0093   0.6493
  12.000   1.9206   0.08697   0.08216  -0.0854   0.0089   0.6501
  12.500   1.8910   0.09590   0.09138  -0.0819   0.0086   0.6507
  13.000   1.8814   0.10299   0.09868  -0.0805   0.0085   0.6515
  13.500   1.8656   0.11155   0.10747  -0.0809   0.0084   0.6524
  14.000   1.8429   0.12178   0.11796  -0.0836   0.0083   0.6533
  14.500   1.8142   0.13352   0.12997  -0.0889   0.0083   0.6542
  15.000   1.7794   0.14690   0.14363  -0.0969   0.0082   0.6551
  15.500   1.7390   0.16215   0.15918  -0.1079   0.0082   0.6557
  16.000   1.6945   0.17909   0.17640  -0.1214   0.0081   0.6562
  16.500   1.6526   0.19630   0.19387  -0.1360   0.0081   0.6566
  17.000   1.6169   0.21278   0.21057  -0.1506   0.0080   0.6571
  17.500   1.5883   0.22834   0.22633  -0.1648   0.0079   0.6578
  18.000   1.5627   0.24401   0.24219  -0.1794   0.0078   0.6584
  18.500   1.5427   0.25886   0.25721  -0.1933   0.0076   0.6592
  19.000   1.4381   0.34182   0.34046  -0.2598   0.0051   0.6523
  19.500   1.4493   0.34584   0.34449  -0.2639   0.0049   0.6534
  20.000   1.4600   0.34942   0.34809  -0.2678   0.0048   0.6549
  20.500   1.4700   0.35521   0.35389  -0.2730   0.0047   0.6564
  21.000   1.4850   0.36515   0.36383  -0.2807   0.0040   0.6577
  21.500   1.4958   0.36975   0.36845  -0.2854   0.0037   0.6601
  22.000   1.5059   0.37367   0.37238  -0.2899   0.0035   0.6617
  22.500   1.5152   0.37709   0.37582  -0.2942   0.0033   0.6624
  23.000   1.5238   0.38025   0.37900  -0.2983   0.0033   0.6632
  23.500   0.8975   0.36879   0.36783  -0.1763   0.0031   0.6566
  24.000   0.8971   0.37881   0.37786  -0.1784   0.0027   0.6584
  24.500   0.8972   0.38448   0.38354  -0.1800   0.0023   0.6614
  25.000   0.8972   0.38938   0.38846  -0.1817   0.0021   0.6621
