  
       XFOIL         Version 6.99
  
 Calculated polar for: NACA 0012                                       
  
 1 1 Reynolds number fixed          Mach number fixed         
  
 xtrf =   1.000 (top)        1.000 (bottom)  
 Mach =   0.000     Re =     2.332 e 6     Ncrit =   9.000
  
   alpha    CL        CD       CDp       CM     Top_Xtr  Bot_Xtr
  ------ -------- --------- --------- -------- -------- --------
 -15.000  -0.1336   0.04406   0.04015  -0.2091   0.7496   0.0342
 -14.500  -0.0814   0.04456   0.04064  -0.2099   0.7493   0.0394
 -14.000  -0.0308   0.04514   0.04123  -0.2104   0.7490   0.0455
 -13.500   0.0182   0.04581   0.04190  -0.2104   0.7489   0.0525
 -13.000   0.0657   0.04654   0.04265  -0.2101   0.7489   0.0610
 -12.500   0.1121   0.04732   0.04347  -0.2097   0.7490   0.0736
 -12.000   0.1570   0.04817   0.04437  -0.2089   0.7491   0.0880
 -11.500   0.2008   0.04907   0.04532  -0.2078   0.7495   0.1047
 -11.000   0.2447   0.05000   0.04632  -0.2067   0.7500   0.1283
 -10.500   0.2886   0.05093   0.04733  -0.2056   0.7507   0.1525
 -10.000   0.3334   0.05186   0.04833  -0.2045   0.7516   0.1799
  -9.500   0.3792   0.05277   0.04931  -0.2034   0.7527   0.2053
  -9.000   0.4279   0.05369   0.05033  -0.2026   0.7541   0.2361
  -8.500   0.4747   0.05429   0.05098  -0.2015   0.7539   0.2594
  -8.000   0.5218   0.05459   0.05138  -0.2003   0.7524   0.2899
  -7.500   0.5712   0.05493   0.05178  -0.1994   0.7512   0.3130
  -7.000   0.6232   0.05516   0.05208  -0.1988   0.7501   0.3389
  -6.500   0.6885   0.05468   0.05167  -0.1998   0.7483   0.3638
  -6.000   0.7752   0.05304   0.05008  -0.2037   0.7471   0.3870
  -5.500   0.8020   0.05333   0.05044  -0.1993   0.7398   0.4037
  -5.000   0.9060   0.04852   0.04567  -0.2054   0.7318   0.4273
  -4.500   0.9421   0.04923   0.04645  -0.2026   0.7231   0.4408
  -4.000   0.9763   0.04937   0.04525  -0.1995   0.4445   0.4544
  -3.500   1.0174   0.04966   0.04507  -0.1971   0.3429   0.4680
  -3.000   1.0701   0.04889   0.04386  -0.1961   0.2554   0.4796
  -2.500   1.1149   0.04896   0.04364  -0.1941   0.1923   0.4927
  -2.000   1.1593   0.04907   0.04350  -0.1919   0.1440   0.5032
  -1.500   1.2064   0.04893   0.04316  -0.1900   0.1062   0.5139
  -1.000   1.2509   0.04907   0.04315  -0.1878   0.0801   0.5236
  -0.500   1.2940   0.04933   0.04331  -0.1853   0.0616   0.5324
  -0.000   1.3370   0.04966   0.04358  -0.1828   0.0499   0.5411
   0.500   1.3795   0.05001   0.04387  -0.1803   0.0409   0.5492
   1.000   1.4217   0.05039   0.04420  -0.1777   0.0343   0.5560
   1.500   1.4634   0.05078   0.04458  -0.1751   0.0292   0.5637
   2.000   1.5046   0.05118   0.04495  -0.1723   0.0250   0.5696
   2.500   1.5454   0.05162   0.04538  -0.1695   0.0225   0.5761
   3.000   1.5855   0.05207   0.04585  -0.1666   0.0201   0.5821
   3.500   1.6250   0.05258   0.04635  -0.1636   0.0182   0.5873
   4.000   1.6637   0.05313   0.04693  -0.1606   0.0166   0.5919
   4.500   1.7014   0.05379   0.04762  -0.1574   0.0155   0.5974
   5.000   1.7374   0.05451   0.04836  -0.1540   0.0140   0.6018
   5.500   1.7723   0.05536   0.04926  -0.1505   0.0133   0.6058
   6.000   1.8061   0.05631   0.05026  -0.1470   0.0125   0.6093
   6.500   1.8377   0.05741   0.05140  -0.1432   0.0117   0.6136
   7.000   1.8660   0.05876   0.05282  -0.1390   0.0107   0.6169
   7.500   1.8954   0.06009   0.05423  -0.1351   0.0104   0.6202
   8.000   1.9228   0.06157   0.05579  -0.1310   0.0100   0.6233
   8.500   1.9478   0.06322   0.05751  -0.1267   0.0095   0.6256
   9.000   1.9697   0.06516   0.05953  -0.1222   0.0090   0.6288
   9.500   1.9826   0.06792   0.06242  -0.1169   0.0084   0.6309
  10.000   1.9980   0.07056   0.06518  -0.1121   0.0082   0.6329
  10.500   2.0141   0.07313   0.06786  -0.1076   0.0080   0.6351
  11.000   2.0240   0.07633   0.07119  -0.1027   0.0078   0.6375
  11.500   2.0316   0.07984   0.07483  -0.0980   0.0076   0.6396
  12.000   2.0357   0.08384   0.07896  -0.0935   0.0074   0.6411
  12.500   2.0365   0.08830   0.08357  -0.0892   0.0072   0.6429
  13.000   2.0300   0.09381   0.08924  -0.0853   0.0070   0.6441
  13.500   2.0171   0.10049   0.09611  -0.0824   0.0068   0.6450
  14.000   1.9971   0.10869   0.10453  -0.0811   0.0066   0.6458
  14.500   1.9691   0.11871   0.11480  -0.0821   0.0064   0.6465
  15.000   1.9324   0.13074   0.12711  -0.0864   0.0063   0.6470
  15.500   1.8895   0.14452   0.14120  -0.0940   0.0062   0.6475
  16.000   1.8510   0.15834   0.15528  -0.1035   0.0062   0.6480
  16.500   1.8006   0.17534   0.17258  -0.1172   0.0062   0.6483
  17.000   1.7345   0.19695   0.19454  -0.1365   0.0062   0.6482
  17.500   1.6746   0.21875   0.21663  -0.1571   0.0062   0.6481
  18.000   1.6350   0.23691   0.23501  -0.1745   0.0062   0.6482
  18.500   1.6133   0.25087   0.24912  -0.1880   0.0061   0.6488
  19.000   1.5931   0.26513   0.26354  -0.2019   0.0061   0.6493
  19.500   1.5797   0.27780   0.27635  -0.2144   0.0059   0.6499
  20.000   1.5667   0.29111   0.28979  -0.2275   0.0057   0.6507
  20.500   0.9064   0.33657   0.33568  -0.1716   0.0031   0.6381
  21.000   0.9064   0.34233   0.34145  -0.1732   0.0030   0.6400
  21.500   0.9062   0.34989   0.34903  -0.1750   0.0029   0.6412
  22.000   0.9058   0.35939   0.35854  -0.1769   0.0022   0.6425
  22.500   0.9063   0.36428   0.36345  -0.1785   0.0020   0.6437
  23.000   0.9067   0.36868   0.36786  -0.1801   0.0019   0.6448
  25.000   0.9036   0.39673   0.39597  -0.1866   0.0012   0.6485
