  
       XFOIL         Version 6.99
  
 Calculated polar for: NACA 0012                                       
  
 1 1 Reynolds number fixed          Mach number fixed         
  
 xtrf =   1.000 (top)        1.000 (bottom)  
 Mach =   0.000     Re =     1.521 e 6     Ncrit =   9.000
  
   alpha    CL        CD       CDp       CM     Top_Xtr  Bot_Xtr
  ------ -------- --------- --------- -------- -------- --------
 -15.000  -1.6171   0.03529   0.03066   0.0003   0.9999   0.0114
 -14.500  -1.6104   0.03178   0.02700   0.0034   0.9999   0.0118
 -14.000  -1.5957   0.02909   0.02420   0.0067   0.9999   0.0122
 -13.500  -1.5764   0.02688   0.02186   0.0100   0.9999   0.0126
 -13.000  -1.5531   0.02504   0.01990   0.0134   0.9999   0.0130
 -12.500  -1.5255   0.02354   0.01830   0.0166   0.9999   0.0134
 -12.000  -1.5063   0.02151   0.01613   0.0212   0.9999   0.0142
 -11.500  -1.4774   0.02015   0.01470   0.0248   0.9999   0.0149
 -11.000  -1.4446   0.01907   0.01353   0.0282   0.9999   0.0157
 -10.500  -1.4093   0.01815   0.01253   0.0315   0.9999   0.0163
 -10.000  -1.3745   0.01697   0.01128   0.0348   0.9999   0.0176
  -9.500  -1.3325   0.01611   0.01039   0.0370   0.9999   0.0189
  -9.000  -1.2877   0.01540   0.00962   0.0388   0.9999   0.0199
  -8.500  -1.2445   0.01445   0.00865   0.0409   0.9999   0.0221
  -8.000  -1.1972   0.01381   0.00798   0.0424   0.9999   0.0237
  -7.500  -1.1508   0.01303   0.00720   0.0440   0.9999   0.0268
  -7.000  -1.1023   0.01239   0.00656   0.0454   0.9999   0.0298
  -6.500  -1.0530   0.01182   0.00599   0.0466   0.9999   0.0333
  -6.000  -1.0037   0.01121   0.00542   0.0478   0.9999   0.0390
  -5.500  -0.9506   0.01118   0.00484   0.0484   0.7472   0.0461
  -5.000  -0.8997   0.01073   0.00436   0.0493   0.7304   0.0566
  -4.500  -0.8484   0.01026   0.00393   0.0502   0.7203   0.0711
  -4.000  -0.7968   0.00980   0.00354   0.0511   0.7122   0.0917
  -3.500  -0.7450   0.00932   0.00318   0.0519   0.7047   0.1201
  -3.000  -0.6930   0.00885   0.00285   0.0526   0.6976   0.1567
  -2.500  -0.6408   0.00832   0.00252   0.0534   0.6893   0.2031
  -2.000  -0.5887   0.00775   0.00221   0.0541   0.6801   0.2592
  -1.500  -0.5359   0.00726   0.00193   0.0548   0.6694   0.3182
  -1.000  -0.4831   0.00678   0.00169   0.0554   0.6558   0.3824
  -0.500  -0.4302   0.00634   0.00147   0.0561   0.6389   0.4504
  -0.000  -0.3777   0.00589   0.00127   0.0568   0.6183   0.5283
   0.500  -0.3272   0.00530   0.00101   0.0580   0.5944   0.6371
   1.000  -0.2761   0.00493   0.00099   0.0592   0.5676   0.7608
   1.500  -0.2188   0.00501   0.00100   0.0591   0.5371   0.7784
   2.000  -0.1611   0.00514   0.00101   0.0590   0.5034   0.7892
   2.500  -0.1038   0.00525   0.00105   0.0589   0.4661   0.7986
   3.000  -0.0461   0.00546   0.00110   0.0587   0.4265   0.8047
   3.500   0.0113   0.00561   0.00116   0.0585   0.3849   0.8111
   4.000   0.0686   0.00586   0.00126   0.0582   0.3402   0.8164
   4.500   0.1259   0.00613   0.00139   0.0580   0.2950   0.8205
   5.000   0.1830   0.00642   0.00153   0.0577   0.2500   0.8247
   5.500   0.2395   0.00675   0.00172   0.0575   0.2049   0.8295
   6.000   0.2956   0.00715   0.00196   0.0573   0.1626   0.8346
   7.000   0.4080   0.00795   0.00252   0.0569   0.0995   0.8417
   7.500   0.4639   0.00837   0.00285   0.0567   0.0775   0.8438
   8.000   0.5197   0.00879   0.00321   0.0565   0.0623   0.8460
   8.500   0.5749   0.00926   0.00363   0.0564   0.0500   0.8485
   9.000   0.6301   0.00972   0.00408   0.0562   0.0424   0.8513
   9.500   0.6848   0.01024   0.00457   0.0561   0.0362   0.8544
  10.000   0.7391   0.01073   0.00508   0.0561   0.0321   0.8586
  10.500   0.7927   0.01124   0.00566   0.0561   0.0287   0.8642
  11.000   0.8451   0.01189   0.00635   0.0563   0.0257   0.8708
  11.500   0.8974   0.01246   0.00700   0.0565   0.0236   0.8799
  12.000   0.9475   0.01324   0.00787   0.0569   0.0216   0.8921
  12.500   0.9976   0.01385   0.00860   0.0574   0.0201   0.9089
  13.000   1.0427   0.01485   0.00973   0.0586   0.0183   0.9325
  13.500   1.0887   0.01558   0.01061   0.0597   0.0176   0.9592
  14.000   1.1385   0.01651   0.01165   0.0597   0.0166   0.9816
  14.500   1.1919   0.01792   0.01313   0.0582   0.0154   0.9941
  15.000   1.2452   0.01939   0.01473   0.0564   0.0147   1.0001
  15.500   1.2784   0.02055   0.01598   0.0589   0.0141   1.0001
  16.000   1.3104   0.02200   0.01753   0.0609   0.0136   1.0001
  16.500   1.3317   0.02387   0.01951   0.0637   0.0131   1.0001
  17.000   1.3377   0.02740   0.02320   0.0649   0.0126   1.0001
  17.500   1.3309   0.03471   0.03078   0.0601   0.0122   1.0001
  18.000   1.3315   0.04113   0.03739   0.0564   0.0121   1.0001
  18.500   1.3158   0.04998   0.04646   0.0515   0.0120   1.0001
  19.000   1.2822   0.06165   0.05837   0.0451   0.0119   1.0001
  19.500   1.2299   0.07658   0.07357   0.0372   0.0119   1.0001
  20.000   1.1689   0.09377   0.09102   0.0282   0.0119   1.0001
  20.500   1.1118   0.11109   0.10856   0.0192   0.0119   1.0001
  21.000   1.0650   0.12734   0.12501   0.0106   0.0119   1.0001
  21.500   1.0295   0.14221   0.14005   0.0025   0.0118   1.0001
  22.000   0.9987   0.15696   0.15495  -0.0058   0.0116   1.0001
  22.500   0.9726   0.17141   0.16955  -0.0143   0.0114   1.0001
  23.000   0.9053   0.19843   0.19685  -0.0299   0.0110   1.0001
  24.000   0.8091   0.26498   0.26351  -0.0599   0.0080   1.0001
  24.500   0.8265   0.26963   0.26818  -0.0640   0.0078   1.0001
  25.000   0.8411   0.27610   0.27465  -0.0684   0.0076   1.0001
