  
       XFOIL         Version 6.99
  
 Calculated polar for: NACA 0012                                       
  
 1 1 Reynolds number fixed          Mach number fixed         
  
 xtrf =   1.000 (top)        1.000 (bottom)  
 Mach =   0.000     Re =     1.521 e 6     Ncrit =   9.000
  
   alpha    CL        CD       CDp       CM     Top_Xtr  Bot_Xtr
  ------ -------- --------- --------- -------- -------- --------
 -15.000  -0.5868   0.01514   0.00988  -0.1538   0.7536   0.0234
 -14.500  -0.5327   0.01471   0.00938  -0.1548   0.7540   0.0250
 -13.500  -0.4213   0.01337   0.00795  -0.1570   0.7548   0.0309
 -13.000  -0.3642   0.01275   0.00730  -0.1580   0.7553   0.0344
 -12.500  -0.3071   0.01211   0.00665  -0.1591   0.7559   0.0399
 -12.000  -0.2499   0.01159   0.00613  -0.1600   0.7567   0.0467
 -11.500  -0.1928   0.01116   0.00574  -0.1609   0.7575   0.0553
 -11.000  -0.1358   0.01084   0.00547  -0.1617   0.7585   0.0667
 -10.500  -0.0790   0.01057   0.00529  -0.1625   0.7595   0.0843
 -10.000  -0.0222   0.01039   0.00520  -0.1632   0.7606   0.1044
  -9.500   0.0347   0.01023   0.00516  -0.1640   0.7618   0.1314
  -9.000   0.0914   0.01011   0.00517  -0.1646   0.7629   0.1632
  -8.500   0.1481   0.01002   0.00522  -0.1652   0.7641   0.1995
  -8.000   0.2047   0.00999   0.00532  -0.1657   0.7652   0.2358
  -7.500   0.2612   0.01001   0.00547  -0.1661   0.7663   0.2725
  -7.000   0.3175   0.01010   0.00568  -0.1665   0.7673   0.3079
  -6.500   0.3785   0.00949   0.00514  -0.1674   0.7646   0.3410
  -6.000   0.4410   0.00864   0.00430  -0.1683   0.7606   0.3728
  -5.500   0.5017   0.00816   0.00387  -0.1691   0.7613   0.4016
  -5.000   0.5619   0.00775   0.00352  -0.1698   0.7608   0.4290
  -4.500   0.6222   0.00737   0.00313  -0.1704   0.7577   0.4527
  -4.000   0.6795   0.00735   0.00318  -0.1705   0.7537   0.4754
  -3.500   0.7385   0.00681   0.00271  -0.1707   0.7488   0.4963
  -3.000   0.7970   0.00642   0.00232  -0.1709   0.7410   0.5155
  -2.500   0.8540   0.00607   0.00207  -0.1707   0.7300   0.5322
  -2.000   0.8670   0.00783   0.00301  -0.1621   0.4986   0.5451
  -1.500   0.8845   0.00905   0.00384  -0.1544   0.3973   0.5573
  -1.000   0.8972   0.01030   0.00483  -0.1460   0.3253   0.5696
  -0.500   0.9209   0.01166   0.00596  -0.1403   0.2618   0.5808
  -0.000   0.9514   0.01289   0.00696  -0.1359   0.2082   0.5914
   0.500   0.9857   0.01397   0.00784  -0.1322   0.1600   0.6018
   1.000   1.0231   0.01492   0.00860  -0.1289   0.1215   0.6107
   1.500   1.0631   0.01575   0.00930  -0.1261   0.0927   0.6194
   2.000   1.1045   0.01653   0.00996  -0.1235   0.0724   0.6269
   2.500   1.1466   0.01728   0.01066  -0.1210   0.0579   0.6340
   3.000   1.1890   0.01803   0.01135  -0.1186   0.0476   0.6405
   3.500   1.2315   0.01879   0.01207  -0.1162   0.0399   0.6458
   4.000   1.2737   0.01957   0.01284  -0.1138   0.0344   0.6507
   4.500   1.3153   0.02040   0.01365  -0.1112   0.0298   0.6558
   5.000   1.3570   0.02121   0.01446  -0.1088   0.0267   0.6595
   5.500   1.3975   0.02211   0.01540  -0.1062   0.0242   0.6628
   6.000   1.4368   0.02308   0.01638  -0.1035   0.0220   0.6666
   6.500   1.4753   0.02410   0.01744  -0.1007   0.0202   0.6704
   7.000   1.5135   0.02512   0.01850  -0.0979   0.0187   0.6726
   7.500   1.5478   0.02644   0.01988  -0.0946   0.0171   0.6749
   8.000   1.5830   0.02761   0.02113  -0.0915   0.0164   0.6778
   8.500   1.6162   0.02892   0.02249  -0.0883   0.0154   0.6811
   9.000   1.6455   0.03053   0.02417  -0.0846   0.0144   0.6830
   9.500   1.6720   0.03228   0.02605  -0.0807   0.0137   0.6851
  10.000   1.7002   0.03392   0.02779  -0.0772   0.0132   0.6878
  10.500   1.7243   0.03585   0.02982  -0.0733   0.0126   0.6903
  11.000   1.7459   0.03800   0.03207  -0.0693   0.0121   0.6921
  11.500   1.7588   0.04091   0.03512  -0.0646   0.0115   0.6942
  12.000   1.7668   0.04429   0.03867  -0.0598   0.0111   0.6961
  12.500   1.7810   0.04724   0.04177  -0.0559   0.0109   0.6982
  13.000   1.7900   0.05076   0.04547  -0.0520   0.0106   0.7000
  13.500   1.7944   0.05485   0.04972  -0.0482   0.0103   0.7018
  14.000   1.7947   0.05964   0.05468  -0.0448   0.0101   0.7034
  14.500   1.7909   0.06524   0.06046  -0.0422   0.0098   0.7049
  15.000   1.7783   0.07264   0.06807  -0.0410   0.0096   0.7064
  15.500   1.7563   0.08250   0.07817  -0.0423   0.0094   0.7076
  16.000   1.7197   0.09563   0.09159  -0.0466   0.0093   0.7084
  16.500   1.6692   0.11187   0.10814  -0.0541   0.0092   0.7088
  17.000   1.6099   0.13040   0.12699  -0.0644   0.0092   0.7090
  17.500   1.5491   0.15022   0.14711  -0.0769   0.0093   0.7091
  18.000   1.4946   0.16982   0.16697  -0.0905   0.0093   0.7092
  18.500   1.4510   0.18810   0.18547  -0.1042   0.0092   0.7094
  19.000   1.4198   0.20439   0.20192  -0.1169   0.0090   0.7098
  19.500   1.3932   0.22027   0.21797  -0.1297   0.0087   0.7102
  20.000   1.3756   0.23450   0.23237  -0.1413   0.0087   0.7108
  22.000   0.8051   0.29988   0.29838  -0.1283   0.0057   0.7036
  22.500   0.8093   0.30541   0.30393  -0.1304   0.0053   0.7050
  23.000   0.8139   0.31019   0.30874  -0.1324   0.0050   0.7068
  24.500   0.8210   0.33223   0.33083  -0.1392   0.0040   0.7106
  25.000   0.8242   0.33775   0.33638  -0.1413   0.0037   0.7119
