  
       XFOIL         Version 6.99
  
 Calculated polar for: NACA 0012                                       
  
 1 1 Reynolds number fixed          Mach number fixed         
  
 xtrf =   1.000 (top)        1.000 (bottom)  
 Mach =   0.000     Re =     1.521 e 6     Ncrit =   9.000
  
   alpha    CL        CD       CDp       CM     Top_Xtr  Bot_Xtr
  ------ -------- --------- --------- -------- -------- --------
 -15.000  -0.2591   0.02909   0.02461  -0.1988   0.7700   0.0320
 -14.500  -0.2096   0.02933   0.02481  -0.1991   0.7700   0.0350
 -14.000  -0.1594   0.02950   0.02497  -0.1995   0.7700   0.0404
 -13.500  -0.1098   0.02978   0.02524  -0.1996   0.7701   0.0464
 -13.000  -0.0603   0.03014   0.02560  -0.1996   0.7701   0.0539
 -12.500  -0.0109   0.03053   0.02602  -0.1995   0.7701   0.0642
 -12.000   0.0384   0.03097   0.02649  -0.1992   0.7701   0.0774
 -11.500   0.0796   0.02817   0.02372  -0.1979   0.7721   0.0920
 -11.000   0.1123   0.02936   0.02497  -0.1952   0.7723   0.1110
 -10.500   0.1455   0.03043   0.02610  -0.1926   0.7726   0.1335
 -10.000   0.1792   0.03144   0.02718  -0.1899   0.7730   0.1572
  -9.500   0.2119   0.03247   0.02829  -0.1870   0.7736   0.1832
  -9.000   0.2462   0.03345   0.02935  -0.1844   0.7743   0.2126
  -8.500   0.2822   0.03440   0.03038  -0.1818   0.7752   0.2406
  -8.000   0.3209   0.03529   0.03135  -0.1796   0.7764   0.2696
  -7.500   0.3650   0.03600   0.03215  -0.1782   0.7772   0.2996
  -7.000   0.4230   0.03610   0.03233  -0.1785   0.7757   0.3310
  -6.500   0.4860   0.03609   0.03240  -0.1795   0.7743   0.3600
  -6.000   0.5599   0.03581   0.03221  -0.1820   0.7730   0.3889
  -5.000   1.0165   0.01212   0.00830  -0.2332   0.7342   0.4693
  -4.500   1.1071   0.00932   0.00536  -0.2394   0.7324   0.4878
  -4.000   1.1694   0.00817   0.00424  -0.2402   0.7279   0.5023
  -3.500   1.1135   0.01092   0.00656  -0.2182   0.5642   0.5100
  -3.000   0.9974   0.02275   0.01848  -0.1927   0.5240   0.5129
  -2.500   0.9703   0.02707   0.02235  -0.1800   0.4290   0.5203
  -2.000   0.9940   0.02830   0.02315  -0.1746   0.3353   0.5321
  -1.500   1.0271   0.02912   0.02363  -0.1707   0.2643   0.5426
  -1.000   1.0626   0.02977   0.02396  -0.1670   0.1993   0.5531
  -0.500   1.1017   0.03029   0.02424  -0.1639   0.1502   0.5629
  -0.000   1.1431   0.03069   0.02444  -0.1611   0.1120   0.5719
   0.500   1.1843   0.03118   0.02479  -0.1583   0.0844   0.5805
   1.000   1.2257   0.03170   0.02521  -0.1555   0.0657   0.5884
   1.500   1.2675   0.03225   0.02569  -0.1529   0.0529   0.5956
   2.000   1.3093   0.03282   0.02621  -0.1502   0.0436   0.6024
   2.500   1.3508   0.03341   0.02676  -0.1476   0.0367   0.6082
   3.000   1.3920   0.03403   0.02738  -0.1448   0.0317   0.6142
   3.500   1.4322   0.03471   0.02805  -0.1420   0.0275   0.6195
   4.000   1.4727   0.03542   0.02877  -0.1393   0.0250   0.6245
   4.500   1.5119   0.03621   0.02958  -0.1363   0.0224   0.6289
   5.000   1.5504   0.03705   0.03046  -0.1334   0.0205   0.6326
   5.500   1.5869   0.03804   0.03149  -0.1301   0.0187   0.6365
   6.000   1.6238   0.03903   0.03252  -0.1270   0.0175   0.6406
   6.500   1.6585   0.04018   0.03371  -0.1237   0.0161   0.6436
   7.000   1.6904   0.04153   0.03514  -0.1200   0.0151   0.6458
   7.500   1.7226   0.04284   0.03654  -0.1165   0.0144   0.6483
   8.000   1.7527   0.04434   0.03812  -0.1129   0.0136   0.6510
   8.500   1.7779   0.04626   0.04011  -0.1087   0.0128   0.6545
   9.000   1.7981   0.04859   0.04258  -0.1041   0.0122   0.6567
   9.500   1.8217   0.05062   0.04474  -0.1000   0.0118   0.6581
  10.000   1.8433   0.05286   0.04710  -0.0959   0.0113   0.6595
  10.500   1.8599   0.05557   0.04991  -0.0915   0.0109   0.6610
  11.000   1.8727   0.05866   0.05314  -0.0869   0.0104   0.6628
  11.500   1.8744   0.06291   0.05755  -0.0818   0.0100   0.6650
  12.000   1.8702   0.06795   0.06280  -0.0768   0.0096   0.6677
  12.500   1.8733   0.07242   0.06744  -0.0728   0.0095   0.6689
  13.000   1.8704   0.07776   0.07298  -0.0693   0.0093   0.6697
  13.500   1.8602   0.08443   0.07987  -0.0666   0.0091   0.6707
  14.000   1.8443   0.09266   0.08833  -0.0656   0.0090   0.6719
  14.500   1.8219   0.10266   0.09858  -0.0669   0.0088   0.6730
  15.000   1.7910   0.11466   0.11085  -0.0709   0.0087   0.6739
  15.500   1.7526   0.12864   0.12512  -0.0778   0.0087   0.6747
  16.000   1.7061   0.14488   0.14166  -0.0878   0.0086   0.6752
  16.500   1.6556   0.16270   0.15977  -0.1005   0.0086   0.6755
  17.000   1.6064   0.18131   0.17865  -0.1149   0.0086   0.6758
  17.500   1.5655   0.19902   0.19660  -0.1294   0.0085   0.6762
  18.000   1.5334   0.21537   0.21315  -0.1434   0.0084   0.6767
  18.500   1.5083   0.23062   0.22856  -0.1567   0.0083   0.6773
  19.000   1.4893   0.24492   0.24299  -0.1693   0.0081   0.6782
  19.500   1.4738   0.25880   0.25699  -0.1817   0.0078   0.6787
  20.500   1.3846   0.34138   0.33986  -0.2440   0.0055   0.6742
  21.000   1.3994   0.35162   0.35010  -0.2515   0.0047   0.6752
  21.500   1.4115   0.35647   0.35496  -0.2563   0.0043   0.6769
  22.000   1.4228   0.36068   0.35919  -0.2607   0.0041   0.6786
  22.500   1.4336   0.36433   0.36286  -0.2650   0.0040   0.6795
  23.000   1.4432   0.36847   0.36701  -0.2693   0.0039   0.6805
  24.000   1.4696   0.38319   0.38175  -0.2818   0.0030   0.6823
  24.500   1.4797   0.38733   0.38591  -0.2866   0.0028   0.6836
  25.000   1.4891   0.39088   0.38948  -0.2912   0.0027   0.6851
