  
       XFOIL         Version 6.99
  
 Calculated polar for: NACA 0012                                       
  
 1 1 Reynolds number fixed          Mach number fixed         
  
 xtrf =   1.000 (top)        1.000 (bottom)  
 Mach =   0.000     Re =     1.521 e 6     Ncrit =   9.000
  
   alpha    CL        CD       CDp       CM     Top_Xtr  Bot_Xtr
  ------ -------- --------- --------- -------- -------- --------
 -15.000  -0.7198   0.01467   0.00931  -0.1342   0.7678   0.0211
 -14.500  -0.6661   0.01400   0.00858  -0.1351   0.7682   0.0226
 -14.000  -0.6122   0.01325   0.00777  -0.1360   0.7687   0.0246
 -13.500  -0.5574   0.01270   0.00718  -0.1368   0.7691   0.0269
 -13.000  -0.5025   0.01214   0.00659  -0.1376   0.7694   0.0301
 -12.500  -0.4467   0.01176   0.00618  -0.1383   0.7697   0.0331
 -12.000  -0.3906   0.01122   0.00564  -0.1391   0.7703   0.0381
 -11.500  -0.3337   0.01066   0.00507  -0.1399   0.7711   0.0445
 -11.000  -0.2766   0.01018   0.00461  -0.1407   0.7720   0.0526
 -10.500  -0.2193   0.00975   0.00422  -0.1415   0.7730   0.0638
 -10.000  -0.1621   0.00935   0.00390  -0.1423   0.7739   0.0804
  -9.500  -0.1047   0.00903   0.00367  -0.1430   0.7749   0.1005
  -9.000  -0.0472   0.00874   0.00349  -0.1438   0.7760   0.1261
  -8.500   0.0103   0.00848   0.00337  -0.1445   0.7770   0.1587
  -8.000   0.0678   0.00826   0.00330  -0.1452   0.7781   0.1954
  -7.500   0.1255   0.00809   0.00328  -0.1458   0.7792   0.2344
  -7.000   0.1834   0.00799   0.00330  -0.1465   0.7803   0.2708
  -6.500   0.2414   0.00781   0.00324  -0.1470   0.7801   0.3081
  -6.000   0.3005   0.00737   0.00284  -0.1475   0.7752   0.3440
  -5.500   0.3585   0.00727   0.00279  -0.1479   0.7714   0.3766
  -5.000   0.4161   0.00722   0.00283  -0.1482   0.7691   0.4069
  -4.500   0.4749   0.00688   0.00259  -0.1486   0.7667   0.4358
  -4.000   0.5335   0.00660   0.00237  -0.1489   0.7626   0.4610
  -3.500   0.5921   0.00633   0.00214  -0.1491   0.7574   0.4855
  -3.000   0.6498   0.00619   0.00206  -0.1492   0.7518   0.5073
  -2.500   0.7075   0.00589   0.00183  -0.1493   0.7438   0.5270
  -2.000   0.7648   0.00570   0.00171  -0.1492   0.7299   0.5451
  -1.500   0.7846   0.00744   0.00256  -0.1420   0.4838   0.5592
  -1.000   0.8175   0.00840   0.00314  -0.1374   0.3855   0.5730
  -0.500   0.8505   0.00924   0.00368  -0.1328   0.3096   0.5856
  -0.000   0.8776   0.01004   0.00425  -0.1269   0.2507   0.5975
   0.500   0.9125   0.01091   0.00492  -0.1229   0.1962   0.6082
   1.000   0.9502   0.01177   0.00557  -0.1195   0.1506   0.6180
   1.500   0.9905   0.01257   0.00622  -0.1166   0.1152   0.6272
   2.000   1.0322   0.01335   0.00685  -0.1140   0.0882   0.6351
   2.500   1.0750   0.01409   0.00751  -0.1116   0.0690   0.6424
   3.000   1.1183   0.01482   0.00816  -0.1093   0.0556   0.6490
   3.500   1.1616   0.01556   0.00886  -0.1070   0.0458   0.6544
   4.000   1.2050   0.01631   0.00957  -0.1048   0.0386   0.6598
   4.500   1.2482   0.01707   0.01032  -0.1025   0.0336   0.6645
   5.000   1.2905   0.01789   0.01114  -0.1001   0.0294   0.6680
   5.500   1.3317   0.01878   0.01202  -0.0976   0.0259   0.6719
   6.000   1.3735   0.01961   0.01288  -0.0952   0.0239   0.6761
   6.500   1.4122   0.02067   0.01396  -0.0924   0.0213   0.6785
   7.000   1.4522   0.02155   0.01490  -0.0899   0.0201   0.6814
   7.500   1.4899   0.02263   0.01600  -0.0871   0.0185   0.6849
   8.000   1.5247   0.02389   0.01733  -0.0839   0.0172   0.6877
   8.500   1.5604   0.02501   0.01854  -0.0810   0.0164   0.6902
   9.000   1.5932   0.02636   0.01994  -0.0777   0.0154   0.6934
   9.500   1.6197   0.02818   0.02185  -0.0737   0.0143   0.6958
  10.000   1.6504   0.02958   0.02336  -0.0704   0.0138   0.6985
  10.500   1.6777   0.03124   0.02513  -0.0668   0.0132   0.7010
  11.000   1.7014   0.03315   0.02713  -0.0630   0.0127   0.7034
  11.500   1.7201   0.03547   0.02957  -0.0588   0.0121   0.7057
  12.000   1.7275   0.03873   0.03301  -0.0537   0.0115   0.7076
  12.500   1.7442   0.04133   0.03577  -0.0499   0.0113   0.7099
  13.000   1.7562   0.04439   0.03900  -0.0460   0.0110   0.7119
  13.500   1.7643   0.04796   0.04273  -0.0422   0.0107   0.7136
  14.000   1.7691   0.05206   0.04699  -0.0388   0.0104   0.7154
  14.500   1.7693   0.05684   0.05194  -0.0358   0.0101   0.7172
  15.000   1.7628   0.06288   0.05817  -0.0337   0.0099   0.7188
  15.500   1.7444   0.07146   0.06699  -0.0336   0.0096   0.7200
  16.000   1.7127   0.08326   0.07907  -0.0366   0.0095   0.7210
  16.500   1.6657   0.09863   0.09474  -0.0429   0.0094   0.7216
  17.000   1.6075   0.11651   0.11295  -0.0519   0.0094   0.7220
  17.500   1.5452   0.13595   0.13270  -0.0630   0.0094   0.7222
  18.000   1.4856   0.15598   0.15300  -0.0758   0.0094   0.7224
  18.500   1.4359   0.17497   0.17223  -0.0890   0.0094   0.7227
  19.000   1.3986   0.19216   0.18960  -0.1018   0.0093   0.7232
  19.500   1.3711   0.20780   0.20541  -0.1138   0.0090   0.7238
  20.000   1.3508   0.22252   0.22030  -0.1254   0.0090   0.7245
  20.500   1.2818   0.25563   0.25378  -0.1513   0.0087   0.7234
  21.500   1.2259   0.32490   0.32308  -0.1944   0.0059   0.7211
  22.000   1.2399   0.33010   0.32830  -0.1990   0.0055   0.7228
  22.500   1.2536   0.33476   0.33298  -0.2035   0.0054   0.7242
  23.500   1.2792   0.34550   0.34376  -0.2130   0.0051   0.7273
  24.000   1.2946   0.35531   0.35358  -0.2199   0.0043   0.7286
  24.500   1.3075   0.36029   0.35858  -0.2248   0.0040   0.7309
  25.000   1.3199   0.36476   0.36309  -0.2296   0.0038   0.7341
