  
       XFOIL         Version 6.99
  
 Calculated polar for: NACA 0012                                       
  
 1 1 Reynolds number fixed          Mach number fixed         
  
 xtrf =   1.000 (top)        1.000 (bottom)  
 Mach =   0.000     Re =     2.332 e 6     Ncrit =   9.000
  
   alpha    CL        CD       CDp       CM     Top_Xtr  Bot_Xtr
  ------ -------- --------- --------- -------- -------- --------
 -15.000  -0.3852   0.01434   0.00963  -0.1843   0.7496   0.0251
 -14.500  -0.3303   0.01418   0.00945  -0.1852   0.7504   0.0270
 -14.000  -0.2755   0.01396   0.00926  -0.1861   0.7512   0.0309
 -13.500  -0.2211   0.01391   0.00921  -0.1868   0.7521   0.0352
 -13.000  -0.2031   0.01884   0.01437  -0.1823   0.7700   0.0376
 -12.500  -0.1496   0.01888   0.01443  -0.1827   0.7700   0.0440
 -12.000  -0.0959   0.01896   0.01454  -0.1830   0.7700   0.0520
 -11.500  -0.0423   0.01906   0.01468  -0.1833   0.7700   0.0622
 -11.000   0.0114   0.01916   0.01484  -0.1835   0.7701   0.0773
 -10.500   0.0651   0.01930   0.01505  -0.1837   0.7701   0.0950
 -10.000   0.1187   0.01945   0.01529  -0.1839   0.7701   0.1189
  -9.500   0.1723   0.01965   0.01558  -0.1839   0.7701   0.1432
  -9.000   0.2258   0.01986   0.01589  -0.1840   0.7701   0.1743
  -8.500   0.3165   0.01550   0.01167  -0.1903   0.7741   0.2173
  -8.000   0.3651   0.01597   0.01225  -0.1895   0.7744   0.2461
  -7.500   0.4260   0.01573   0.01209  -0.1905   0.7738   0.2806
  -7.000   0.4413   0.02023   0.01668  -0.1837   0.7700   0.3029
  -6.500   0.4965   0.01995   0.01649  -0.1837   0.7699   0.3324
  -6.000   0.6547   0.00914   0.00531  -0.1991   0.7371   0.3764
  -5.500   0.7186   0.00823   0.00441  -0.2004   0.7337   0.4022
  -5.000   0.7807   0.00768   0.00382  -0.2014   0.7295   0.4258
  -4.500   0.8428   0.00692   0.00309  -0.2024   0.7282   0.4468
  -3.500   0.9443   0.00658   0.00240  -0.1998   0.5977   0.4825
  -3.000   0.9374   0.00865   0.00387  -0.1873   0.4327   0.4952
  -2.500   0.9349   0.01054   0.00553  -0.1763   0.3612   0.5068
  -2.000   0.9446   0.01308   0.00788  -0.1690   0.2997   0.5181
  -1.500   0.9660   0.01504   0.00966  -0.1636   0.2459   0.5315
  -1.000   0.9917   0.01655   0.01096  -0.1586   0.1931   0.5432
  -0.500   1.0239   0.01764   0.01185  -0.1545   0.1506   0.5537
  -0.000   1.0599   0.01850   0.01258  -0.1510   0.1169   0.5657
   0.500   1.0983   0.01926   0.01321  -0.1479   0.0912   0.5750
   1.000   1.1379   0.01997   0.01382  -0.1449   0.0696   0.5848
   1.500   1.1792   0.02062   0.01441  -0.1422   0.0567   0.5931
   2.000   1.2210   0.02127   0.01501  -0.1396   0.0468   0.6015
   2.500   1.2630   0.02193   0.01561  -0.1371   0.0389   0.6081
   3.000   1.3051   0.02259   0.01626  -0.1346   0.0332   0.6155
   3.500   1.3468   0.02327   0.01692  -0.1320   0.0287   0.6215
   4.000   1.3882   0.02399   0.01762  -0.1294   0.0246   0.6271
   4.500   1.4298   0.02472   0.01837  -0.1269   0.0227   0.6326
   5.000   1.4699   0.02553   0.01917  -0.1241   0.0201   0.6374
   5.500   1.5102   0.02633   0.02000  -0.1215   0.0189   0.6416
   6.000   1.5486   0.02726   0.02094  -0.1185   0.0168   0.6455
   6.500   1.5875   0.02816   0.02189  -0.1158   0.0160   0.6494
   7.000   1.6249   0.02915   0.02290  -0.1128   0.0149   0.6529
   7.500   1.6596   0.03033   0.02412  -0.1095   0.0135   0.6558
   8.000   1.6950   0.03146   0.02531  -0.1064   0.0131   0.6584
   8.500   1.7282   0.03272   0.02663  -0.1031   0.0125   0.6609
   9.000   1.7590   0.03415   0.02811  -0.0995   0.0117   0.6635
   9.500   1.7860   0.03588   0.02991  -0.0956   0.0109   0.6661
  10.000   1.8136   0.03756   0.03168  -0.0918   0.0105   0.6680
  10.500   1.8387   0.03942   0.03363  -0.0879   0.0102   0.6695
  11.000   1.8620   0.04140   0.03572  -0.0839   0.0099   0.6710
  11.500   1.8832   0.04359   0.03799  -0.0798   0.0095   0.6725
  12.000   1.8992   0.04625   0.04075  -0.0754   0.0091   0.6743
  12.500   1.9116   0.04928   0.04390  -0.0709   0.0087   0.6763
  13.000   1.9119   0.05349   0.04829  -0.0657   0.0083   0.6779
  13.500   1.9218   0.05693   0.05187  -0.0618   0.0082   0.6788
  14.000   1.9286   0.06082   0.05589  -0.0580   0.0080   0.6797
  14.500   1.9296   0.06544   0.06067  -0.0544   0.0079   0.6806
  15.000   1.9241   0.07112   0.06652  -0.0514   0.0077   0.6816
  15.500   1.9117   0.07830   0.07389  -0.0496   0.0076   0.6826
  16.000   1.8918   0.08729   0.08310  -0.0498   0.0075   0.6837
  16.500   1.8635   0.09826   0.09431  -0.0523   0.0074   0.6848
  17.000   1.8234   0.11176   0.10806  -0.0575   0.0073   0.6856
  17.500   1.7697   0.12815   0.12476  -0.0661   0.0073   0.6860
  18.000   1.7027   0.14816   0.14509  -0.0790   0.0073   0.6861
  18.500   1.6235   0.17193   0.16921  -0.0966   0.0073   0.6859
  19.000   1.5486   0.19698   0.19458  -0.1169   0.0074   0.6856
  19.500   1.4949   0.21894   0.21678  -0.1355   0.0073   0.6855
  20.000   1.4685   0.23457   0.23255  -0.1489   0.0072   0.6860
  20.500   1.4503   0.24867   0.24677  -0.1612   0.0070   0.6865
  21.000   1.4348   0.26268   0.26089  -0.1735   0.0068   0.6869
  21.500   1.4276   0.27442   0.27270  -0.1839   0.0064   0.6873
  23.000   0.8432   0.32391   0.32272  -0.1455   0.0032   0.6802
  23.500   0.8466   0.32846   0.32729  -0.1474   0.0031   0.6812
  24.000   0.8473   0.33594   0.33479  -0.1495   0.0030   0.6822
  24.500   0.8486   0.34369   0.34256  -0.1516   0.0030   0.6832
  25.000   0.8501   0.35206   0.35094  -0.1538   0.0022   0.6844
