  
       XFOIL         Version 6.99
  
 Calculated polar for: NACA 0012                                       
  
 1 1 Reynolds number fixed          Mach number fixed         
  
 xtrf =   1.000 (top)        1.000 (bottom)  
 Mach =   0.000     Re =     1.521 e 6     Ncrit =   9.000
  
   alpha    CL        CD       CDp       CM     Top_Xtr  Bot_Xtr
  ------ -------- --------- --------- -------- -------- --------
 -15.000  -1.6840   0.04370   0.03921   0.0136   0.9999   0.0108
 -14.500  -1.6826   0.03948   0.03484   0.0168   0.9999   0.0111
 -14.000  -1.6742   0.03610   0.03132   0.0201   0.9999   0.0114
 -13.500  -1.6607   0.03329   0.02837   0.0236   0.9999   0.0118
 -13.000  -1.6427   0.03088   0.02584   0.0271   0.9999   0.0122
 -12.500  -1.6215   0.02879   0.02361   0.0306   0.9999   0.0125
 -12.000  -1.6055   0.02633   0.02100   0.0350   0.9999   0.0130
 -11.500  -1.5835   0.02434   0.01891   0.0390   0.9999   0.0137
 -11.000  -1.5550   0.02283   0.01733   0.0425   0.9999   0.0144
 -10.500  -1.5236   0.02152   0.01593   0.0457   0.9999   0.0150
 -10.000  -1.4898   0.02037   0.01469   0.0489   0.9999   0.0155
  -9.500  -1.4623   0.01942   0.01321   0.0533   0.7536   0.0169
  -9.000  -1.4249   0.01852   0.01218   0.0561   0.7361   0.0180
  -8.500  -1.3853   0.01773   0.01128   0.0587   0.7293   0.0188
  -8.000  -1.3477   0.01669   0.01017   0.0618   0.7235   0.0208
  -7.500  -1.3060   0.01599   0.00941   0.0642   0.7188   0.0223
  -7.000  -1.2665   0.01524   0.00861   0.0672   0.7142   0.0247
  -6.500  -1.2221   0.01469   0.00801   0.0693   0.7095   0.0269
  -6.000  -1.1771   0.01402   0.00732   0.0713   0.7051   0.0307
  -5.500  -1.1303   0.01343   0.00672   0.0730   0.7007   0.0351
  -5.000  -1.0825   0.01286   0.00617   0.0746   0.6956   0.0408
  -4.500  -1.0340   0.01228   0.00563   0.0761   0.6909   0.0486
  -4.000  -0.9851   0.01171   0.00512   0.0775   0.6860   0.0596
  -3.500  -0.9357   0.01114   0.00463   0.0788   0.6808   0.0748
  -3.000  -0.8861   0.01055   0.00416   0.0801   0.6747   0.0960
  -2.500  -0.8368   0.00994   0.00371   0.0815   0.6680   0.1280
  -2.000  -0.7875   0.00933   0.00328   0.0828   0.6598   0.1688
  -1.500  -0.7384   0.00872   0.00290   0.0842   0.6501   0.2194
  -1.000  -0.6894   0.00811   0.00254   0.0856   0.6392   0.2794
  -0.500  -0.6403   0.00755   0.00221   0.0870   0.6258   0.3449
  -0.000  -0.5910   0.00699   0.00191   0.0884   0.6106   0.4188
   0.500  -0.5426   0.00637   0.00161   0.0899   0.5934   0.5075
   1.500  -0.4472   0.00518   0.00118   0.0935   0.5526   0.7567
   2.000  -0.3897   0.00529   0.00121   0.0934   0.5276   0.7684
   2.500  -0.3320   0.00537   0.00123   0.0933   0.5004   0.7761
   3.000  -0.2741   0.00552   0.00128   0.0931   0.4696   0.7820
   3.500  -0.2161   0.00570   0.00134   0.0928   0.4369   0.7860
   4.000  -0.1580   0.00584   0.00137   0.0925   0.4010   0.7892
   4.500  -0.1001   0.00598   0.00142   0.0922   0.3635   0.7927
   5.000  -0.0423   0.00621   0.00153   0.0918   0.3223   0.7955
   5.500   0.0154   0.00647   0.00166   0.0914   0.2809   0.7982
   6.000   0.0728   0.00681   0.00186   0.0911   0.2375   0.8016
   6.500   0.1302   0.00716   0.00206   0.0907   0.1966   0.8032
   7.500   0.2447   0.00784   0.00246   0.0897   0.1240   0.8025
   8.000   0.3016   0.00822   0.00272   0.0892   0.0967   0.8021
   8.500   0.3582   0.00862   0.00301   0.0887   0.0759   0.8016
   9.000   0.4148   0.00901   0.00335   0.0883   0.0613   0.8012
   9.500   0.4711   0.00943   0.00373   0.0879   0.0507   0.8008
  10.000   0.5270   0.00988   0.00415   0.0875   0.0426   0.8004
  10.500   0.5825   0.01035   0.00462   0.0871   0.0368   0.8001
  11.000   0.6376   0.01088   0.00515   0.0868   0.0323   0.7998
  11.500   0.6918   0.01151   0.00578   0.0865   0.0282   0.7995
  12.000   0.7463   0.01202   0.00634   0.0861   0.0261   0.7993
  12.500   0.7991   0.01278   0.00713   0.0860   0.0235   0.7991
  13.000   0.8523   0.01338   0.00779   0.0857   0.0218   0.7990
  13.500   0.9026   0.01437   0.00883   0.0856   0.0198   0.7989
  14.000   0.9542   0.01509   0.00963   0.0855   0.0189   0.7989
  14.500   1.0040   0.01599   0.01059   0.0853   0.0177   0.7990
  15.000   1.0493   0.01738   0.01209   0.0855   0.0164   0.7992
  15.500   1.0970   0.01834   0.01315   0.0854   0.0158   0.7994
  16.000   1.1417   0.01955   0.01446   0.0854   0.0150   0.7998
  16.500   1.1822   0.02108   0.01609   0.0855   0.0143   0.8002
  17.000   1.2074   0.02400   0.01921   0.0856   0.0135   0.8010
  17.500   1.2310   0.02723   0.02262   0.0833   0.0132   0.8019
  18.000   1.2436   0.03263   0.02821   0.0783   0.0130   0.8030
  19.000   1.2273   0.04800   0.04400   0.0683   0.0126   0.8080
  19.500   1.1942   0.05936   0.05561   0.0618   0.0125   0.8115
  20.000   1.1469   0.07330   0.06980   0.0540   0.0124   0.8149
  20.500   1.0904   0.08946   0.08621   0.0453   0.0124   0.8182
  21.500   0.9914   0.12153   0.11871   0.0285   0.0123   0.8279
  22.000   0.9572   0.13582   0.13317   0.0208   0.0122   0.8353
  22.500   0.9260   0.15021   0.14776   0.0129   0.0120   0.8473
  23.500   0.8820   0.17588   0.17415  -0.0010   0.0114   1.0001
