  
       XFOIL         Version 6.99
  
 Calculated polar for: NACA 0012                                       
  
 1 1 Reynolds number fixed          Mach number fixed         
  
 xtrf =   1.000 (top)        1.000 (bottom)  
 Mach =   0.000     Re =     2.332 e 6     Ncrit =   9.000
  
   alpha    CL        CD       CDp       CM     Top_Xtr  Bot_Xtr
  ------ -------- --------- --------- -------- -------- --------
 -15.000  -0.1638   0.04115   0.03716  -0.2071   0.7560   0.0328
 -14.500  -0.1108   0.04170   0.03770  -0.2080   0.7561   0.0371
 -14.000  -0.0584   0.04228   0.03827  -0.2086   0.7561   0.0421
 -13.500  -0.0064   0.04287   0.03886  -0.2091   0.7562   0.0484
 -13.000   0.0458   0.04345   0.03947  -0.2095   0.7562   0.0586
 -12.500   0.0977   0.04404   0.04010  -0.2098   0.7563   0.0710
 -12.000   0.1492   0.04465   0.04075  -0.2099   0.7563   0.0854
 -11.500   0.2005   0.04527   0.04142  -0.2099   0.7563   0.1028
 -11.000   0.2522   0.04588   0.04211  -0.2099   0.7563   0.1277
 -10.500   0.3033   0.04651   0.04281  -0.2097   0.7564   0.1535
 -10.000   0.3543   0.04714   0.04352  -0.2094   0.7564   0.1810
  -9.500   0.4052   0.04779   0.04425  -0.2090   0.7564   0.2108
  -9.000   0.4557   0.04844   0.04499  -0.2085   0.7564   0.2392
  -8.500   0.5055   0.04905   0.04567  -0.2079   0.7564   0.2688
  -8.000   0.5524   0.04941   0.04610  -0.2067   0.7564   0.2930
  -7.500   0.5993   0.04975   0.04652  -0.2055   0.7564   0.3204
  -7.000   0.6461   0.05011   0.04694  -0.2042   0.7564   0.3417
  -6.500   0.6922   0.05034   0.04724  -0.2027   0.7563   0.3644
  -6.000   0.7369   0.05035   0.04733  -0.2010   0.7561   0.3851
  -5.500   0.7763   0.04992   0.04697  -0.1986   0.7557   0.4031
  -5.000   0.8760   0.04130   0.03837  -0.2035   0.7313   0.4265
  -4.500   0.9313   0.04032   0.03745  -0.2033   0.7239   0.4442
  -4.000   0.9380   0.04286   0.03904  -0.1965   0.5165   0.4548
  -3.500   0.9801   0.04283   0.03840  -0.1942   0.3903   0.4683
  -3.000   1.0255   0.04274   0.03788  -0.1922   0.2993   0.4823
  -2.500   1.0692   0.04282   0.03762  -0.1899   0.2258   0.4943
  -2.000   1.1160   0.04270   0.03723  -0.1880   0.1725   0.5054
  -1.500   1.1588   0.04293   0.03724  -0.1855   0.1272   0.5167
  -1.000   1.2015   0.04322   0.03733  -0.1830   0.0931   0.5261
  -0.500   1.2446   0.04356   0.03757  -0.1806   0.0722   0.5362
  -0.000   1.2878   0.04389   0.03780  -0.1781   0.0574   0.5437
   0.500   1.3312   0.04418   0.03803  -0.1757   0.0459   0.5535
   1.000   1.3750   0.04444   0.03822  -0.1733   0.0373   0.5603
   1.500   1.4178   0.04478   0.03854  -0.1707   0.0315   0.5682
   2.000   1.4595   0.04523   0.03898  -0.1681   0.0277   0.5752
   2.500   1.5006   0.04572   0.03945  -0.1653   0.0245   0.5799
   3.000   1.5409   0.04623   0.03996  -0.1624   0.0212   0.5873
   3.500   1.5810   0.04681   0.04056  -0.1596   0.0197   0.5928
   4.000   1.6195   0.04742   0.04116  -0.1565   0.0173   0.5972
   4.500   1.6582   0.04808   0.04187  -0.1535   0.0164   0.6027
   5.000   1.6952   0.04882   0.04263  -0.1502   0.0150   0.6075
   5.500   1.7310   0.04966   0.04350  -0.1468   0.0138   0.6116
   6.000   1.7665   0.05056   0.04444  -0.1435   0.0131   0.6150
   6.500   1.8004   0.05158   0.04550  -0.1400   0.0123   0.6191
   7.000   1.8305   0.05281   0.04680  -0.1360   0.0112   0.6227
   7.500   1.8613   0.05405   0.04812  -0.1322   0.0108   0.6259
   8.000   1.8897   0.05552   0.04965  -0.1283   0.0104   0.6291
   8.500   1.9146   0.05729   0.05150  -0.1240   0.0100   0.6317
   9.000   1.9377   0.05921   0.05349  -0.1196   0.0095   0.6343
   9.500   1.9559   0.06152   0.05592  -0.1147   0.0088   0.6367
  10.000   1.9730   0.06397   0.05850  -0.1100   0.0085   0.6387
  10.500   1.9887   0.06663   0.06127  -0.1053   0.0084   0.6407
  11.000   2.0026   0.06949   0.06425  -0.1007   0.0082   0.6428
  11.500   2.0152   0.07252   0.06740  -0.0963   0.0079   0.6452
  12.000   2.0197   0.07641   0.07142  -0.0915   0.0077   0.6471
  12.500   2.0234   0.08051   0.07565  -0.0871   0.0074   0.6486
  13.000   2.0210   0.08544   0.08073  -0.0828   0.0072   0.6499
  13.500   2.0099   0.09169   0.08717  -0.0792   0.0070   0.6509
  14.000   1.9900   0.09962   0.09531  -0.0769   0.0068   0.6516
  14.500   1.9599   0.10974   0.10570  -0.0769   0.0066   0.6523
  15.000   1.9266   0.12117   0.11740  -0.0797   0.0065   0.6529
  15.500   1.8979   0.13237   0.12885  -0.0845   0.0064   0.6535
  16.000   1.8607   0.14555   0.14229  -0.0922   0.0064   0.6540
  16.500   1.8137   0.16141   0.15844  -0.1036   0.0064   0.6544
  17.000   1.7557   0.18056   0.17791  -0.1193   0.0064   0.6545
  17.500   1.6865   0.20363   0.20131  -0.1399   0.0064   0.6543
  18.000   1.6325   0.22479   0.22274  -0.1597   0.0064   0.6543
  18.500   1.5990   0.24192   0.24006  -0.1759   0.0064   0.6546
  19.000   1.5801   0.25555   0.25384  -0.1888   0.0063   0.6551
  19.500   1.5655   0.26841   0.26683  -0.2012   0.0062   0.6557
  20.000   1.5526   0.28133   0.27988  -0.2136   0.0060   0.6564
  20.500   1.5356   0.29705   0.29573  -0.2287   0.0056   0.6569
  21.000   0.8993   0.33348   0.33254  -0.1678   0.0032   0.6463
  21.500   0.8979   0.34243   0.34150  -0.1698   0.0031   0.6476
  22.000   0.8975   0.35262   0.35171  -0.1720   0.0027   0.6487
  22.500   0.8985   0.35791   0.35702  -0.1736   0.0023   0.6499
  23.000   0.8994   0.36248   0.36160  -0.1753   0.0021   0.6508
  23.500   0.9001   0.36666   0.36580  -0.1768   0.0020   0.6519
  24.000   0.8990   0.37416   0.37331  -0.1785   0.0020   0.6527
  24.500   0.8984   0.38203   0.38120  -0.1803   0.0019   0.6535
  25.000   0.8983   0.38985   0.38903  -0.1820   0.0013   0.6544
