  
       XFOIL         Version 6.99
  
 Calculated polar for: NACA 0012                                       
  
 1 1 Reynolds number fixed          Mach number fixed         
  
 xtrf =   1.000 (top)        1.000 (bottom)  
 Mach =   0.000     Re =     2.332 e 6     Ncrit =   9.000
  
   alpha    CL        CD       CDp       CM     Top_Xtr  Bot_Xtr
  ------ -------- --------- --------- -------- -------- --------
 -15.000  -1.8139   0.04186   0.03684   0.0266   0.7235   0.0089
 -14.500  -1.8047   0.03859   0.03343   0.0302   0.7216   0.0092
 -14.000  -1.7922   0.03575   0.03047   0.0340   0.7194   0.0094
 -13.500  -1.7757   0.03331   0.02791   0.0377   0.7175   0.0095
 -13.000  -1.7562   0.03116   0.02563   0.0414   0.7153   0.0097
 -12.500  -1.7419   0.02859   0.02292   0.0460   0.7132   0.0104
 -12.000  -1.7186   0.02675   0.02099   0.0498   0.7113   0.0109
 -11.500  -1.6913   0.02518   0.01934   0.0533   0.7091   0.0114
 -11.000  -1.6616   0.02382   0.01787   0.0567   0.7066   0.0118
 -10.500  -1.6295   0.02260   0.01658   0.0599   0.7046   0.0121
 -10.000  -1.5992   0.02118   0.01508   0.0635   0.7022   0.0130
  -9.500  -1.5649   0.02005   0.01390   0.0667   0.6998   0.0138
  -9.000  -1.5282   0.01910   0.01288   0.0696   0.6975   0.0146
  -8.500  -1.4898   0.01820   0.01194   0.0724   0.6948   0.0153
  -8.000  -1.4519   0.01722   0.01094   0.0753   0.6921   0.0169
  -7.500  -1.4109   0.01647   0.01014   0.0778   0.6897   0.0180
  -7.000  -1.3697   0.01566   0.00931   0.0804   0.6868   0.0196
  -6.500  -1.3272   0.01494   0.00859   0.0827   0.6835   0.0215
  -6.000  -1.2838   0.01425   0.00788   0.0850   0.6804   0.0239
  -5.500  -1.2392   0.01364   0.00727   0.0872   0.6770   0.0262
  -5.000  -1.1947   0.01299   0.00665   0.0894   0.6725   0.0302
  -4.500  -1.1505   0.01242   0.00609   0.0917   0.6679   0.0350
  -4.000  -1.1068   0.01191   0.00561   0.0943   0.6628   0.0408
  -3.500  -1.0597   0.01138   0.00513   0.0961   0.6564   0.0490
  -3.000  -1.0117   0.01087   0.00467   0.0977   0.6495   0.0599
  -2.500  -0.9636   0.01035   0.00424   0.0994   0.6412   0.0761
  -2.000  -0.9150   0.00986   0.00384   0.1009   0.6322   0.0957
  -1.500  -0.8669   0.00933   0.00343   0.1026   0.6213   0.1264
  -1.000  -0.8192   0.00877   0.00306   0.1043   0.6098   0.1664
  -0.500  -0.7715   0.00823   0.00270   0.1060   0.5966   0.2144
  -0.000  -0.7239   0.00770   0.00237   0.1077   0.5814   0.2709
   0.500  -0.6759   0.00718   0.00206   0.1093   0.5646   0.3337
   1.000  -0.6281   0.00664   0.00177   0.1110   0.5463   0.4070
   1.500  -0.5808   0.00603   0.00147   0.1128   0.5266   0.4984
   2.000  -0.5432   0.00471   0.00095   0.1163   0.5048   0.7297
   2.500  -0.4852   0.00482   0.00099   0.1161   0.4802   0.7447
   3.000  -0.4267   0.00496   0.00105   0.1158   0.4538   0.7514
   3.500  -0.3682   0.00513   0.00110   0.1155   0.4244   0.7551
   4.000  -0.3101   0.00523   0.00113   0.1151   0.3926   0.7596
   4.500  -0.2517   0.00541   0.00122   0.1147   0.3592   0.7627
   5.000  -0.1933   0.00561   0.00131   0.1143   0.3237   0.7650
   5.500  -0.1349   0.00585   0.00143   0.1138   0.2858   0.7671
   6.000  -0.0767   0.00613   0.00159   0.1133   0.2477   0.7687
   6.500  -0.0186   0.00646   0.00178   0.1128   0.2085   0.7707
   7.000   0.0390   0.00663   0.00185   0.1123   0.1732   0.7740
   7.500   0.0969   0.00694   0.00202   0.1117   0.1389   0.7734
   8.000   0.1547   0.00727   0.00224   0.1111   0.1103   0.7724
   8.500   0.2123   0.00763   0.00249   0.1105   0.0870   0.7715
   9.000   0.2698   0.00800   0.00278   0.1099   0.0697   0.7706
   9.500   0.3271   0.00837   0.00308   0.1094   0.0563   0.7699
  10.000   0.3840   0.00869   0.00336   0.1088   0.0469   0.7697
  10.500   0.4408   0.00904   0.00368   0.1082   0.0398   0.7694
  11.000   0.4972   0.00942   0.00405   0.1077   0.0342   0.7691
  11.500   0.5532   0.00986   0.00447   0.1072   0.0296   0.7687
  12.000   0.6090   0.01028   0.00489   0.1066   0.0267   0.7684
  12.500   0.6644   0.01075   0.00538   0.1061   0.0241   0.7680
  13.000   0.7190   0.01133   0.00597   0.1056   0.0214   0.7676
  13.500   0.7737   0.01184   0.00652   0.1051   0.0201   0.7673
  14.000   0.8273   0.01247   0.00717   0.1047   0.0185   0.7669
  14.500   0.8800   0.01321   0.00797   0.1042   0.0172   0.7665
  15.000   0.9328   0.01385   0.00866   0.1038   0.0162   0.7661
  15.500   0.9837   0.01472   0.00956   0.1034   0.0151   0.7657
  16.000   1.0330   0.01575   0.01068   0.1030   0.0142   0.7654
  16.500   1.0826   0.01664   0.01165   0.1026   0.0137   0.7650
  17.000   1.1302   0.01770   0.01278   0.1021   0.0131   0.7647
  17.500   1.1750   0.01903   0.01418   0.1017   0.0124   0.7644
  18.000   1.2115   0.02126   0.01657   0.1009   0.0116   0.7641
  18.500   1.2518   0.02306   0.01848   0.0994   0.0114   0.7638
  19.000   1.2777   0.02705   0.02264   0.0944   0.0111   0.7635
  19.500   1.2860   0.03266   0.02839   0.0894   0.0109   0.7632
  20.000   1.2810   0.03961   0.03550   0.0846   0.0107   0.7628
  20.500   1.2599   0.04870   0.04478   0.0790   0.0106   0.7625
  21.000   1.2190   0.06086   0.05715   0.0719   0.0105   0.7622
  21.500   1.1564   0.07692   0.07345   0.0629   0.0105   0.7619
  22.000   1.0734   0.09708   0.09388   0.0520   0.0106   0.7616
  22.500   0.9957   0.11764   0.11466   0.0410   0.0107   0.7614
  23.000   0.9386   0.13578   0.13298   0.0313   0.0106   0.7612
  23.500   0.9010   0.15124   0.14857   0.0228   0.0105   0.7609
  24.000   0.8788   0.16435   0.16178   0.0152   0.0102   0.7607
  24.500   0.8620   0.17682   0.17432   0.0078   0.0100   0.7604
  25.000   0.8499   0.18882   0.18638   0.0004   0.0096   0.7601
