  
       XFOIL         Version 6.99
  
 Calculated polar for: NACA 0012                                       
  
 1 1 Reynolds number fixed          Mach number fixed         
  
 xtrf =   1.000 (top)        1.000 (bottom)  
 Mach =   0.000     Re =     2.332 e 6     Ncrit =   9.000
  
   alpha    CL        CD       CDp       CM     Top_Xtr  Bot_Xtr
  ------ -------- --------- --------- -------- -------- --------
 -15.000  -0.8639   0.01341   0.00822  -0.1139   0.7624   0.0170
 -14.500  -0.8102   0.01283   0.00759  -0.1145   0.7629   0.0179
 -14.000  -0.7570   0.01207   0.00680  -0.1150   0.7634   0.0197
 -13.500  -0.7025   0.01152   0.00622  -0.1156   0.7639   0.0212
 -13.000  -0.6476   0.01096   0.00563  -0.1162   0.7644   0.0233
 -12.500  -0.5921   0.01050   0.00516  -0.1169   0.7649   0.0256
 -12.000  -0.5364   0.01000   0.00467  -0.1175   0.7654   0.0290
 -11.500  -0.4801   0.00960   0.00426  -0.1181   0.7660   0.0326
 -11.000  -0.4236   0.00922   0.00390  -0.1187   0.7665   0.0374
 -10.500  -0.3668   0.00887   0.00356  -0.1193   0.7671   0.0436
 -10.000  -0.3098   0.00852   0.00326  -0.1199   0.7676   0.0529
  -9.500  -0.2527   0.00819   0.00300  -0.1206   0.7681   0.0648
  -9.000  -0.1952   0.00791   0.00278  -0.1212   0.7686   0.0796
  -8.500  -0.1378   0.00761   0.00258  -0.1218   0.7691   0.1017
  -8.000  -0.0802   0.00735   0.00243  -0.1225   0.7694   0.1282
  -7.500  -0.0224   0.00712   0.00233  -0.1231   0.7697   0.1599
  -7.000   0.0355   0.00688   0.00222  -0.1237   0.7698   0.1943
  -6.500   0.0941   0.00645   0.00189  -0.1243   0.7682   0.2305
  -6.000   0.1524   0.00611   0.00167  -0.1248   0.7656   0.2688
  -5.500   0.2108   0.00584   0.00152  -0.1253   0.7632   0.3068
  -5.000   0.2692   0.00563   0.00139  -0.1257   0.7607   0.3426
  -4.500   0.3275   0.00546   0.00131  -0.1261   0.7577   0.3757
  -4.000   0.3857   0.00540   0.00133  -0.1265   0.7538   0.4072
  -3.500   0.4443   0.00518   0.00121  -0.1269   0.7511   0.4351
  -3.000   0.5028   0.00499   0.00112  -0.1272   0.7463   0.4633
  -2.500   0.5607   0.00488   0.00106  -0.1274   0.7380   0.4874
  -2.000   0.6069   0.00555   0.00130  -0.1254   0.5886   0.5097
  -1.500   0.6488   0.00649   0.00176  -0.1226   0.4529   0.5294
  -1.000   0.6943   0.00711   0.00209  -0.1205   0.3683   0.5479
  -0.500   0.7402   0.00768   0.00243  -0.1185   0.2994   0.5649
  -0.000   0.7860   0.00824   0.00277  -0.1164   0.2396   0.5802
   0.500   0.8312   0.00882   0.00315  -0.1142   0.1864   0.5938
   1.000   0.8770   0.00938   0.00354  -0.1121   0.1438   0.6061
   1.500   0.9228   0.00994   0.00395  -0.1100   0.1092   0.6180
   2.000   0.9689   0.01048   0.00438  -0.1079   0.0844   0.6275
   2.500   1.0129   0.01098   0.00480  -0.1054   0.0675   0.6367
   3.000   1.0564   0.01151   0.00527  -0.1029   0.0545   0.6442
   3.500   1.1017   0.01209   0.00579  -0.1007   0.0439   0.6515
   4.500   1.1926   0.01326   0.00690  -0.0966   0.0321   0.6628
   5.000   1.2375   0.01387   0.00750  -0.0945   0.0284   0.6678
   5.500   1.2818   0.01452   0.00815  -0.0924   0.0252   0.6718
   6.000   1.3247   0.01527   0.00889  -0.0900   0.0222   0.6753
   6.500   1.3679   0.01595   0.00959  -0.0877   0.0206   0.6790
   7.000   1.4088   0.01680   0.01044  -0.0852   0.0184   0.6820
   7.500   1.4500   0.01757   0.01126  -0.0827   0.0174   0.6844
   8.000   1.4895   0.01845   0.01216  -0.0800   0.0162   0.6870
   8.500   1.5263   0.01954   0.01328  -0.0770   0.0148   0.6899
   9.000   1.5643   0.02045   0.01424  -0.0742   0.0142   0.6921
   9.500   1.6002   0.02150   0.01535  -0.0713   0.0134   0.6942
  10.000   1.6326   0.02279   0.01669  -0.0679   0.0125   0.6966
  10.500   1.6629   0.02423   0.01821  -0.0644   0.0119   0.6989
  11.000   1.6938   0.02554   0.01961  -0.0611   0.0115   0.7008
  11.500   1.7222   0.02704   0.02120  -0.0576   0.0111   0.7029
  12.000   1.7478   0.02873   0.02297  -0.0539   0.0106   0.7048
  12.500   1.7694   0.03073   0.02506  -0.0500   0.0101   0.7066
  13.000   1.7814   0.03347   0.02795  -0.0453   0.0095   0.7084
  13.500   1.8003   0.03571   0.03031  -0.0416   0.0094   0.7101
  14.000   1.8152   0.03832   0.03305  -0.0377   0.0092   0.7120
  14.500   1.8267   0.04135   0.03621  -0.0340   0.0090   0.7135
  15.000   1.8345   0.04486   0.03986  -0.0305   0.0088   0.7147
  15.500   1.8381   0.04896   0.04410  -0.0272   0.0085   0.7164
  16.000   1.8366   0.05392   0.04923  -0.0246   0.0083   0.7183
  16.500   1.8274   0.06028   0.05576  -0.0230   0.0081   0.7197
  17.000   1.8089   0.06895   0.06465  -0.0236   0.0080   0.7208
  17.500   1.7772   0.08055   0.07650  -0.0269   0.0078   0.7216
  18.000   1.7284   0.09560   0.09185  -0.0332   0.0078   0.7221
  18.500   1.6599   0.11463   0.11121  -0.0427   0.0078   0.7223
  19.000   1.5776   0.13723   0.13414  -0.0558   0.0079   0.7221
  19.500   1.4870   0.16328   0.16053  -0.0731   0.0080   0.7218
  20.000   1.4156   0.18731   0.18484  -0.0907   0.0081   0.7215
  20.500   1.3702   0.20710   0.20483  -0.1059   0.0080   0.7217
  21.000   1.3403   0.22416   0.22203  -0.1194   0.0078   0.7221
  21.500   1.3238   0.23810   0.23607  -0.1306   0.0074   0.7228
  22.000   1.3134   0.25070   0.24879  -0.1408   0.0072   0.7237
  24.000   0.7805   0.29916   0.29781  -0.1179   0.0040   0.7182
  24.500   0.7819   0.30727   0.30594  -0.1204   0.0039   0.7196
  25.000   0.7837   0.31689   0.31558  -0.1229   0.0032   0.7207
