  
       XFOIL         Version 6.99
  
 Calculated polar for: NACA 0012                                       
  
 1 1 Reynolds number fixed          Mach number fixed         
  
 xtrf =   1.000 (top)        1.000 (bottom)  
 Mach =   0.000     Re =     2.332 e 6     Ncrit =   9.000
  
   alpha    CL        CD       CDp       CM     Top_Xtr  Bot_Xtr
  ------ -------- --------- --------- -------- -------- --------
 -15.000  -1.1323   0.01541   0.01027  -0.0747   0.7963   0.0142
 -14.500  -1.0831   0.01456   0.00938  -0.0746   0.7955   0.0151
 -14.000  -1.0321   0.01387   0.00863  -0.0746   0.7948   0.0158
 -13.500  -0.9816   0.01304   0.00773  -0.0745   0.7942   0.0170
 -13.000  -0.9295   0.01236   0.00702  -0.0746   0.7938   0.0184
 -12.500  -0.8760   0.01183   0.00644  -0.0748   0.7934   0.0194
 -12.000  -0.8231   0.01115   0.00575  -0.0749   0.7932   0.0218
 -11.500  -0.7685   0.01069   0.00526  -0.0752   0.7931   0.0233
 -11.000  -0.7142   0.01012   0.00469  -0.0754   0.7930   0.0265
 -10.500  -0.6590   0.00965   0.00421  -0.0756   0.7930   0.0299
 -10.000  -0.6033   0.00923   0.00380  -0.0760   0.7930   0.0338
  -9.500  -0.5473   0.00882   0.00341  -0.0763   0.7932   0.0389
  -9.000  -0.4911   0.00842   0.00304  -0.0767   0.7934   0.0468
  -8.500  -0.4346   0.00803   0.00271  -0.0770   0.7936   0.0570
  -8.000  -0.3778   0.00766   0.00242  -0.0774   0.7939   0.0704
  -7.500  -0.3208   0.00730   0.00215  -0.0779   0.7941   0.0887
  -7.000  -0.2636   0.00697   0.00191  -0.0783   0.7942   0.1113
  -6.500  -0.2067   0.00663   0.00168  -0.0786   0.7910   0.1424
  -6.000  -0.1495   0.00632   0.00150  -0.0790   0.7870   0.1788
  -5.500  -0.0919   0.00601   0.00133  -0.0794   0.7855   0.2163
  -5.000  -0.0342   0.00570   0.00118  -0.0798   0.7835   0.2585
  -4.500   0.0238   0.00546   0.00107  -0.0802   0.7810   0.2983
  -4.000   0.0817   0.00523   0.00098  -0.0806   0.7777   0.3401
  -3.500   0.1397   0.00507   0.00092  -0.0809   0.7732   0.3787
  -3.000   0.1980   0.00491   0.00087  -0.0813   0.7687   0.4148
  -2.500   0.2563   0.00475   0.00083  -0.0817   0.7628   0.4493
  -2.000   0.3141   0.00465   0.00081  -0.0819   0.7529   0.4816
  -1.500   0.3720   0.00456   0.00078  -0.0821   0.7302   0.5112
  -1.000   0.4169   0.00555   0.00110  -0.0799   0.5267   0.5362
  -0.500   0.4686   0.00598   0.00129  -0.0790   0.4432   0.5612
  -0.000   0.5206   0.00640   0.00149  -0.0782   0.3720   0.5835
   0.500   0.5727   0.00682   0.00172  -0.0774   0.3093   0.6027
   1.500   0.6762   0.00773   0.00225  -0.0756   0.1993   0.6351
   2.000   0.7278   0.00823   0.00257  -0.0747   0.1535   0.6477
   2.500   0.7797   0.00870   0.00290  -0.0739   0.1186   0.6579
   3.000   0.8314   0.00920   0.00326  -0.0730   0.0909   0.6670
   3.500   0.8832   0.00968   0.00365  -0.0721   0.0707   0.6741
   4.000   0.9348   0.01018   0.00405  -0.0711   0.0565   0.6806
   4.500   0.9859   0.01069   0.00450  -0.0701   0.0451   0.6852
   5.000   1.0370   0.01118   0.00495  -0.0691   0.0381   0.6899
   5.500   1.0873   0.01171   0.00543  -0.0680   0.0323   0.6938
   6.000   1.1371   0.01220   0.00591  -0.0668   0.0286   0.6980
   6.500   1.1865   0.01272   0.00644  -0.0655   0.0256   0.7017
   7.000   1.2343   0.01327   0.00700  -0.0640   0.0226   0.7056
   7.500   1.2818   0.01382   0.00757  -0.0625   0.0207   0.7092
   8.000   1.3274   0.01448   0.00826  -0.0607   0.0188   0.7129
   8.500   1.3727   0.01508   0.00891  -0.0588   0.0176   0.7172
   9.000   1.4133   0.01590   0.00977  -0.0562   0.0158   0.7211
   9.500   1.4525   0.01654   0.01048  -0.0532   0.0152   0.7263
  10.000   1.4913   0.01732   0.01133  -0.0504   0.0144   0.7333
  10.500   1.5273   0.01804   0.01244  -0.0473   0.0134   0.8835
  11.000   1.5578   0.01896   0.01363  -0.0432   0.0127   0.9999
  11.500   1.5918   0.02000   0.01474  -0.0401   0.0123   0.9999
  12.000   1.6234   0.02120   0.01601  -0.0368   0.0118   0.9999
  12.500   1.6522   0.02260   0.01746  -0.0333   0.0112   0.9999
  13.000   1.6746   0.02447   0.01942  -0.0293   0.0105   0.9999
  13.500   1.6960   0.02644   0.02151  -0.0255   0.0102   0.9999
  14.000   1.7183   0.02837   0.02354  -0.0221   0.0100   0.9999
  14.500   1.7368   0.03062   0.02591  -0.0186   0.0097   0.9999
  15.000   1.7515   0.03326   0.02867  -0.0151   0.0095   0.9999
  15.500   1.7623   0.03631   0.03183  -0.0118   0.0092   0.9999
  16.000   1.7673   0.04003   0.03569  -0.0088   0.0090   0.9999
  16.500   1.7660   0.04466   0.04046  -0.0062   0.0087   0.9999
  17.000   1.7553   0.05093   0.04693  -0.0048   0.0085   0.9999
  17.500   1.7325   0.06004   0.05627  -0.0062   0.0083   0.9999
  18.000   1.6918   0.07307   0.06960  -0.0110   0.0081   0.9999
  18.500   1.6359   0.08939   0.08624  -0.0184   0.0081   0.9999
  19.000   1.5639   0.10900   0.10617  -0.0282   0.0081   0.9999
  19.500   1.4838   0.13099   0.12848  -0.0403   0.0083   0.9999
  20.000   1.4001   0.15520   0.15301  -0.0552   0.0084   0.9999
  20.500   1.3328   0.17805   0.17612  -0.0707   0.0084   0.9999
  21.000   1.2889   0.19704   0.19528  -0.0843   0.0083   0.9999
  21.500   1.2600   0.21353   0.21193  -0.0966   0.0080   0.9999
  22.000   1.2480   0.22615   0.22467  -0.1061   0.0079   0.9999
  22.500   1.2365   0.23923   0.23786  -0.1161   0.0078   0.9999
  23.000   1.1866   0.26795   0.26685  -0.1368   0.0070   0.9999
  25.000   0.7337   0.29175   0.29089  -0.1008   0.0044   0.9999
