  
       XFOIL         Version 6.99
  
 Calculated polar for: NACA 0012                                       
  
 1 1 Reynolds number fixed          Mach number fixed         
  
 xtrf =   1.000 (top)        1.000 (bottom)  
 Mach =   0.000     Re =     2.332 e 6     Ncrit =   9.000
  
   alpha    CL        CD       CDp       CM     Top_Xtr  Bot_Xtr
  ------ -------- --------- --------- -------- -------- --------
 -15.000  -1.8484   0.04817   0.04321   0.0333   0.7086   0.0086
 -14.500  -1.8422   0.04442   0.03931   0.0368   0.7072   0.0088
 -14.000  -1.8321   0.04118   0.03594   0.0406   0.7059   0.0090
 -13.500  -1.8175   0.03844   0.03307   0.0443   0.7043   0.0092
 -13.000  -1.7997   0.03606   0.03058   0.0481   0.7025   0.0093
 -12.500  -1.7899   0.03310   0.02745   0.0529   0.7010   0.0099
 -12.000  -1.7709   0.03090   0.02517   0.0571   0.6995   0.0104
 -11.500  -1.7467   0.02909   0.02327   0.0609   0.6973   0.0108
 -11.000  -1.7200   0.02746   0.02156   0.0645   0.6954   0.0113
 -10.500  -1.6905   0.02604   0.02005   0.0680   0.6937   0.0116
 -10.000  -1.6603   0.02460   0.01852   0.0715   0.6917   0.0121
  -9.500  -1.6302   0.02314   0.01701   0.0751   0.6893   0.0130
  -9.000  -1.5956   0.02198   0.01580   0.0782   0.6870   0.0138
  -8.500  -1.5589   0.02097   0.01473   0.0811   0.6850   0.0144
  -8.000  -1.5224   0.01989   0.01360   0.0841   0.6828   0.0156
  -7.500  -1.4841   0.01891   0.01261   0.0869   0.6798   0.0169
  -7.000  -1.4437   0.01809   0.01174   0.0894   0.6770   0.0178
  -6.500  -1.4035   0.01718   0.01082   0.0921   0.6742   0.0197
  -6.000  -1.3615   0.01643   0.01006   0.0944   0.6710   0.0214
  -5.500  -1.3193   0.01564   0.00927   0.0969   0.6669   0.0241
  -5.000  -1.2755   0.01498   0.00859   0.0990   0.6627   0.0263
  -4.500  -1.2321   0.01428   0.00791   0.1013   0.6581   0.0303
  -4.000  -1.1878   0.01362   0.00729   0.1035   0.6526   0.0354
  -3.500  -1.1431   0.01300   0.00668   0.1056   0.6462   0.0415
  -3.000  -1.0983   0.01240   0.00613   0.1078   0.6398   0.0499
  -2.500  -1.0531   0.01182   0.00559   0.1099   0.6317   0.0603
  -2.000  -1.0088   0.01120   0.00507   0.1121   0.6235   0.0774
  -1.500  -0.9643   0.01064   0.00458   0.1144   0.6132   0.0975
  -1.000  -0.9230   0.01003   0.00411   0.1174   0.6032   0.1270
  -0.500  -0.8848   0.00945   0.00368   0.1211   0.5916   0.1648
  -0.000  -0.8426   0.00885   0.00325   0.1239   0.5779   0.2117
   0.500  -0.7999   0.00825   0.00286   0.1266   0.5639   0.2669
   1.000  -0.7571   0.00764   0.00248   0.1293   0.5486   0.3314
   1.500  -0.7140   0.00700   0.00211   0.1319   0.5317   0.4088
   2.000  -0.6718   0.00623   0.00171   0.1347   0.5132   0.5125
   2.500  -0.6365   0.00491   0.00114   0.1388   0.4939   0.7315
   3.000  -0.5779   0.00509   0.00121   0.1384   0.4707   0.7399
   3.500  -0.5200   0.00521   0.00130   0.1382   0.4462   0.7467
   4.000  -0.4615   0.00543   0.00143   0.1379   0.4191   0.7511
   4.500  -0.4029   0.00570   0.00160   0.1375   0.3899   0.7535
   5.000  -0.3447   0.00577   0.00158   0.1371   0.3586   0.7564
   5.500  -0.2864   0.00590   0.00163   0.1367   0.3257   0.7595
   6.000  -0.2280   0.00614   0.00178   0.1362   0.2902   0.7620
   6.500  -0.1695   0.00645   0.00200   0.1356   0.2531   0.7650
   7.000  -0.1110   0.00685   0.00230   0.1351   0.2157   0.7680
   7.500  -0.0528   0.00709   0.00241   0.1345   0.1799   0.7680
   8.000   0.0052   0.00730   0.00250   0.1338   0.1471   0.7674
   8.500   0.0630   0.00754   0.00263   0.1331   0.1173   0.7668
   9.000   0.1207   0.00782   0.00280   0.1325   0.0929   0.7662
   9.500   0.1782   0.00810   0.00300   0.1318   0.0746   0.7655
  10.000   0.2357   0.00841   0.00323   0.1311   0.0599   0.7648
  10.500   0.2930   0.00872   0.00350   0.1304   0.0497   0.7642
  11.000   0.3501   0.00905   0.00380   0.1297   0.0421   0.7635
  11.500   0.4069   0.00942   0.00414   0.1290   0.0361   0.7629
  12.000   0.4634   0.00983   0.00453   0.1283   0.0312   0.7622
  12.500   0.5196   0.01027   0.00496   0.1276   0.0275   0.7616
  13.000   0.5757   0.01070   0.00540   0.1269   0.0250   0.7610
  13.500   0.6309   0.01128   0.00599   0.1262   0.0223   0.7604
  14.000   0.6863   0.01176   0.00650   0.1255   0.0209   0.7598
  14.500   0.7401   0.01250   0.00727   0.1248   0.0187   0.7592
  15.000   0.7945   0.01306   0.00788   0.1241   0.0179   0.7586
  15.500   0.8478   0.01378   0.00863   0.1233   0.0167   0.7580
  16.000   0.8990   0.01482   0.00975   0.1226   0.0153   0.7574
  16.500   0.9511   0.01560   0.01059   0.1217   0.0148   0.7568
  17.000   1.0018   0.01655   0.01161   0.1209   0.0141   0.7562
  17.500   1.0505   0.01774   0.01287   0.1199   0.0134   0.7557
  18.000   1.0943   0.01968   0.01495   0.1183   0.0124   0.7551
  18.500   1.1410   0.02124   0.01661   0.1163   0.0121   0.7546
  19.000   1.1836   0.02378   0.01929   0.1124   0.0118   0.7541
  19.500   1.2071   0.02846   0.02412   0.1058   0.0114   0.7539
  20.000   1.2104   0.03449   0.03029   0.1007   0.0112   0.7537
  20.500   1.1997   0.04213   0.03809   0.0953   0.0110   0.7536
  21.000   1.1717   0.05218   0.04833   0.0889   0.0108   0.7535
  21.500   1.1245   0.06546   0.06182   0.0809   0.0108   0.7533
  22.000   1.0583   0.08229   0.07888   0.0714   0.0109   0.7532
  22.500   0.9828   0.10142   0.09825   0.0610   0.0109   0.7531
  23.000   0.9131   0.12084   0.11788   0.0507   0.0109   0.7530
  23.500   0.8662   0.13724   0.13443   0.0419   0.0108   0.7529
  24.000   0.8357   0.15136   0.14865   0.0341   0.0106   0.7528
  24.500   0.8155   0.16407   0.16144   0.0268   0.0103   0.7526
  25.000   0.7976   0.17686   0.17432   0.0193   0.0098   0.7525
