  
       XFOIL         Version 6.99
  
 Calculated polar for: NACA 0012                                       
  
 1 1 Reynolds number fixed          Mach number fixed         
  
 xtrf =   1.000 (top)        1.000 (bottom)  
 Mach =   0.000     Re =     2.332 e 6     Ncrit =   9.000
  
   alpha    CL        CD       CDp       CM     Top_Xtr  Bot_Xtr
  ------ -------- --------- --------- -------- -------- --------
 -15.000  -0.1913   0.02724   0.02308  -0.2079   0.7552   0.0303
 -14.500  -0.1424   0.02745   0.02330  -0.2080   0.7552   0.0347
 -14.000  -0.0945   0.02780   0.02364  -0.2078   0.7553   0.0393
 -13.500  -0.0474   0.02822   0.02406  -0.2073   0.7553   0.0453
 -13.000  -0.0008   0.02869   0.02455  -0.2067   0.7553   0.0525
 -12.500   0.0403   0.02923   0.02512  -0.2049   0.7553   0.0621
 -12.000   0.0797   0.02990   0.02583  -0.2029   0.7553   0.0731
 -11.500   0.1255   0.03060   0.02659  -0.2021   0.7553   0.0888
 -11.000   0.2379   0.02455   0.02062  -0.2115   0.7573   0.1206
 -10.500   0.2396   0.02807   0.02420  -0.2045   0.7574   0.1356
 -10.000   0.2585   0.03015   0.02633  -0.1997   0.7578   0.1533
  -9.500   0.2835   0.03181   0.02806  -0.1958   0.7584   0.1773
  -9.000   0.3105   0.03334   0.02966  -0.1921   0.7592   0.2016
  -8.500   0.3421   0.03464   0.03104  -0.1890   0.7602   0.2279
  -8.000   0.3872   0.03532   0.03180  -0.1876   0.7604   0.2551
  -7.500   0.4625   0.03455   0.03113  -0.1904   0.7587   0.2907
  -7.000   0.5612   0.03282   0.02949  -0.1962   0.7572   0.3273
  -6.500   0.5932   0.03710   0.03386  -0.1923   0.7553   0.3509
  -6.000   0.6380   0.03744   0.03427  -0.1907   0.7552   0.3731
  -5.500   0.6812   0.03747   0.03437  -0.1888   0.7550   0.3940
  -5.000   1.1395   0.00741   0.00376  -0.2529   0.7276   0.4554
  -4.500   1.1301   0.00874   0.00458  -0.2395   0.5763   0.4666
  -4.000   1.0187   0.01891   0.01479  -0.2125   0.5148   0.4685
  -3.500   0.9479   0.02648   0.02220  -0.1933   0.4585   0.4739
  -3.000   0.9608   0.02858   0.02392  -0.1865   0.3737   0.4861
  -2.500   0.9910   0.02961   0.02463  -0.1823   0.2978   0.4991
  -2.000   1.0281   0.03013   0.02484  -0.1789   0.2295   0.5109
  -1.500   1.0659   0.03074   0.02520  -0.1757   0.1776   0.5224
  -1.000   1.1054   0.03128   0.02553  -0.1727   0.1330   0.5340
  -0.500   1.1465   0.03177   0.02585  -0.1699   0.1016   0.5427
  -0.000   1.1886   0.03218   0.02614  -0.1672   0.0771   0.5536
   0.500   1.2316   0.03256   0.02643  -0.1647   0.0610   0.5616
   1.000   1.2744   0.03299   0.02679  -0.1622   0.0486   0.5711
   1.500   1.3167   0.03351   0.02724  -0.1596   0.0401   0.5776
   2.000   1.3588   0.03403   0.02775  -0.1570   0.0340   0.5858
   2.500   1.4006   0.03458   0.02828  -0.1544   0.0296   0.5925
   3.000   1.4420   0.03516   0.02884  -0.1517   0.0260   0.5982
   3.500   1.4826   0.03577   0.02945  -0.1489   0.0225   0.6046
   4.000   1.5233   0.03642   0.03011  -0.1462   0.0207   0.6100
   4.500   1.5627   0.03713   0.03082  -0.1433   0.0184   0.6140
   5.000   1.6021   0.03787   0.03160  -0.1404   0.0173   0.6196
   5.500   1.6395   0.03870   0.03245  -0.1373   0.0156   0.6239
   6.000   1.6768   0.03959   0.03337  -0.1342   0.0146   0.6280
   6.500   1.7131   0.04055   0.03437  -0.1310   0.0137   0.6312
   7.000   1.7470   0.04166   0.03552  -0.1275   0.0126   0.6351
   7.500   1.7793   0.04289   0.03682  -0.1239   0.0119   0.6381
   8.000   1.8114   0.04416   0.03816  -0.1204   0.0115   0.6414
   8.500   1.8402   0.04569   0.03976  -0.1165   0.0110   0.6442
   9.000   1.8668   0.04741   0.04154  -0.1125   0.0104   0.6467
   9.500   1.8881   0.04955   0.04377  -0.1079   0.0095   0.6489
  10.000   1.9121   0.05147   0.04579  -0.1038   0.0093   0.6508
  10.500   1.9338   0.05360   0.04803  -0.0996   0.0091   0.6528
  11.000   1.9503   0.05622   0.05076  -0.0950   0.0088   0.6549
  11.500   1.9669   0.05887   0.05352  -0.0907   0.0086   0.6570
  12.000   1.9779   0.06205   0.05681  -0.0861   0.0083   0.6591
  12.500   1.9851   0.06570   0.06059  -0.0815   0.0080   0.6606
  13.000   1.9833   0.07040   0.06545  -0.0767   0.0076   0.6615
  13.500   1.9703   0.07653   0.07180  -0.0719   0.0073   0.6623
  14.000   1.9619   0.08253   0.07799  -0.0685   0.0072   0.6631
  14.500   1.9508   0.08946   0.08511  -0.0663   0.0071   0.6641
  15.000   1.9339   0.09783   0.09368  -0.0658   0.0071   0.6650
  15.500   1.9100   0.10778   0.10386  -0.0674   0.0070   0.6658
  16.000   1.8783   0.11952   0.11586  -0.0715   0.0070   0.6666
  16.500   1.8374   0.13344   0.13005  -0.0787   0.0069   0.6672
  17.000   1.7866   0.14990   0.14681  -0.0894   0.0069   0.6677
  17.500   1.7210   0.17044   0.16768  -0.1050   0.0069   0.6677
  18.000   1.6490   0.19405   0.19162  -0.1248   0.0069   0.6675
  18.500   1.5903   0.21625   0.21409  -0.1445   0.0069   0.6675
  19.000   1.5530   0.23434   0.23238  -0.1609   0.0069   0.6677
  19.500   1.5322   0.24866   0.24684  -0.1739   0.0067   0.6684
  20.000   1.5169   0.26200   0.26030  -0.1862   0.0065   0.6692
  20.500   1.5012   0.27624   0.27467  -0.1993   0.0063   0.6699
  21.000   1.4909   0.28931   0.28784  -0.2114   0.0060   0.6708
  22.500   0.8776   0.34170   0.34068  -0.1619   0.0027   0.6621
  23.000   0.8797   0.34639   0.34538  -0.1636   0.0026   0.6630
  23.500   0.8816   0.35057   0.34958  -0.1653   0.0025   0.6640
  24.000   0.8810   0.35865   0.35767  -0.1673   0.0024   0.6649
  24.500   0.8812   0.36648   0.36552  -0.1692   0.0024   0.6660
  25.000   0.8818   0.37457   0.37363  -0.1711   0.0017   0.6671
