  
       XFOIL         Version 6.99
  
 Calculated polar for: NACA 0012                                       
  
 1 1 Reynolds number fixed          Mach number fixed         
  
 xtrf =   1.000 (top)        1.000 (bottom)  
 Mach =   0.000     Re =     1.521 e 6     Ncrit =   9.000
  
   alpha    CL        CD       CDp       CM     Top_Xtr  Bot_Xtr
  ------ -------- --------- --------- -------- -------- --------
 -15.000  -0.2528   0.03897   0.03462  -0.1945   0.7636   0.0326
 -14.500  -0.2003   0.03929   0.03493  -0.1958   0.7645   0.0371
 -14.000  -0.1478   0.03975   0.03535  -0.1967   0.7656   0.0423
 -13.500  -0.0933   0.04031   0.03589  -0.1977   0.7669   0.0488
 -13.000  -0.0331   0.04110   0.03670  -0.1994   0.7682   0.0580
 -12.500   0.0318   0.04234   0.03797  -0.2017   0.7693   0.0713
 -12.000   0.0914   0.04351   0.03917  -0.2031   0.7698   0.0861
 -11.500   0.1474   0.04444   0.04018  -0.2040   0.7700   0.1096
 -11.000   0.2003   0.04532   0.04112  -0.2042   0.7702   0.1335
 -10.500   0.2528   0.04614   0.04202  -0.2043   0.7703   0.1620
 -10.000   0.3051   0.04692   0.04289  -0.2043   0.7703   0.1945
  -9.500   0.3569   0.04771   0.04376  -0.2042   0.7704   0.2265
  -9.000   0.4084   0.04849   0.04463  -0.2039   0.7704   0.2560
  -8.500   0.4596   0.04928   0.04549  -0.2034   0.7705   0.2856
  -8.000   0.5104   0.05002   0.04631  -0.2029   0.7705   0.3143
  -7.500   0.5575   0.05042   0.04676  -0.2017   0.7705   0.3391
  -7.000   0.6039   0.05070   0.04713  -0.2004   0.7704   0.3623
  -6.500   0.6502   0.05100   0.04750  -0.1990   0.7704   0.3852
  -6.000   0.6955   0.05119   0.04775  -0.1974   0.7703   0.4052
  -5.500   0.7369   0.05117   0.04780  -0.1951   0.7701   0.4230
  -5.000   0.7467   0.04993   0.04663  -0.1882   0.7686   0.4368
  -4.500   0.8605   0.04314   0.03988  -0.1945   0.7413   0.4603
  -4.000   0.9364   0.03997   0.03677  -0.1966   0.7310   0.4783
  -3.500   0.9447   0.04256   0.03945  -0.1900   0.7221   0.4888
  -3.000   0.9919   0.04098   0.03648  -0.1883   0.4455   0.5014
  -2.500   1.0310   0.04120   0.03619  -0.1853   0.3401   0.5139
  -2.000   1.0756   0.04113   0.03573  -0.1831   0.2610   0.5246
  -1.500   1.1174   0.04131   0.03557  -0.1804   0.1940   0.5351
  -1.000   1.1590   0.04157   0.03556  -0.1777   0.1403   0.5448
  -0.000   1.2444   0.04211   0.03575  -0.1725   0.0788   0.5621
   0.500   1.2881   0.04237   0.03592  -0.1701   0.0613   0.5702
   1.000   1.3303   0.04277   0.03623  -0.1675   0.0487   0.5773
   1.500   1.3719   0.04322   0.03665  -0.1648   0.0406   0.5842
   2.000   1.4131   0.04372   0.03713  -0.1620   0.0348   0.5905
   2.500   1.4539   0.04425   0.03765  -0.1592   0.0301   0.5964
   3.000   1.4937   0.04483   0.03823  -0.1563   0.0260   0.6017
   3.500   1.5335   0.04548   0.03890  -0.1534   0.0238   0.6070
   4.000   1.5718   0.04618   0.03960  -0.1503   0.0212   0.6115
   4.500   1.6097   0.04693   0.04041  -0.1472   0.0196   0.6158
   5.000   1.6448   0.04785   0.04135  -0.1436   0.0176   0.6195
   5.500   1.6808   0.04878   0.04236  -0.1404   0.0167   0.6236
   6.000   1.7150   0.04985   0.04346  -0.1369   0.0156   0.6273
   6.500   1.7445   0.05123   0.04492  -0.1329   0.0142   0.6304
   7.000   1.7761   0.05250   0.04629  -0.1293   0.0137   0.6326
   7.500   1.8050   0.05399   0.04787  -0.1254   0.0130   0.6350
   8.000   1.8312   0.05572   0.04968  -0.1212   0.0124   0.6377
   8.500   1.8492   0.05819   0.05225  -0.1163   0.0116   0.6407
   9.000   1.8667   0.06072   0.05492  -0.1115   0.0112   0.6439
   9.500   1.8864   0.06306   0.05741  -0.1072   0.0108   0.6454
  10.000   1.9018   0.06585   0.06033  -0.1026   0.0105   0.6465
  10.500   1.9136   0.06904   0.06366  -0.0980   0.0101   0.6477
  11.000   1.9233   0.07246   0.06721  -0.0935   0.0097   0.6491
  11.500   1.9227   0.07706   0.07197  -0.0886   0.0093   0.6505
  12.000   1.9095   0.08332   0.07845  -0.0837   0.0090   0.6520
  12.500   1.8938   0.09036   0.08573  -0.0800   0.0088   0.6538
  13.000   1.8839   0.09729   0.09287  -0.0780   0.0087   0.6565
  13.500   1.8684   0.10561   0.10142  -0.0776   0.0086   0.6582
  14.000   1.8470   0.11544   0.11150  -0.0794   0.0084   0.6587
  14.500   1.8189   0.12695   0.12329  -0.0839   0.0084   0.6592
  15.000   1.7842   0.14019   0.13681  -0.0912   0.0083   0.6596
  15.500   1.7432   0.15530   0.15221  -0.1014   0.0082   0.6599
  16.000   1.6985   0.17202   0.16922  -0.1141   0.0082   0.6602
  16.500   1.6536   0.18970   0.18717  -0.1287   0.0082   0.6603
  17.000   1.6139   0.20702   0.20473  -0.1438   0.0081   0.6605
  17.500   1.5825   0.22313   0.22104  -0.1583   0.0080   0.6608
  18.000   1.5598   0.23765   0.23574  -0.1715   0.0079   0.6612
  18.500   1.5362   0.25341   0.25168  -0.1861   0.0077   0.6615
  19.000   1.5118   0.27086   0.26930  -0.2024   0.0075   0.6618
  19.500   0.8852   0.31634   0.31521  -0.1599   0.0054   0.6485
  20.000   0.8876   0.32134   0.32022  -0.1615   0.0051   0.6498
  20.500   0.8903   0.32551   0.32442  -0.1629   0.0049   0.6516
  21.000   0.8908   0.33234   0.33125  -0.1646   0.0048   0.6534
  21.500   0.8899   0.34315   0.34208  -0.1671   0.0041   0.6549
  22.000   0.8914   0.34884   0.34778  -0.1689   0.0037   0.6579
  22.500   0.8927   0.35373   0.35270  -0.1705   0.0035   0.6587
  23.000   0.8939   0.35805   0.35704  -0.1720   0.0034   0.6596
  23.500   0.8934   0.36552   0.36452  -0.1738   0.0033   0.6604
  24.000   0.8933   0.37517   0.37419  -0.1758   0.0028   0.6612
  24.500   0.8936   0.38083   0.37987  -0.1775   0.0024   0.6624
  25.000   0.8938   0.38578   0.38483  -0.1792   0.0022   0.6639
