  
       XFOIL         Version 6.99
  
 Calculated polar for: NACA 0012                                       
  
 1 1 Reynolds number fixed          Mach number fixed         
  
 xtrf =   1.000 (top)        1.000 (bottom)  
 Mach =   0.000     Re =     2.332 e 6     Ncrit =   9.000
  
   alpha    CL        CD       CDp       CM     Top_Xtr  Bot_Xtr
  ------ -------- --------- --------- -------- -------- --------
 -15.000  -0.2122   0.03561   0.03156  -0.2021   0.7556   0.0308
 -14.500  -0.1602   0.03603   0.03195  -0.2028   0.7556   0.0344
 -14.000  -0.1088   0.03651   0.03242  -0.2032   0.7557   0.0381
 -13.500  -0.0570   0.03696   0.03288  -0.2037   0.7557   0.0443
 -13.000  -0.0055   0.03744   0.03338  -0.2040   0.7557   0.0523
 -12.500   0.0459   0.03794   0.03390  -0.2041   0.7557   0.0629
 -12.000   0.0974   0.03844   0.03445  -0.2043   0.7558   0.0774
 -11.500   0.1488   0.03896   0.03503  -0.2043   0.7558   0.0941
 -11.000   0.1998   0.03951   0.03562  -0.2042   0.7558   0.1128
 -10.500   0.2512   0.04004   0.03623  -0.2041   0.7558   0.1389
 -10.000   0.3024   0.04058   0.03687  -0.2038   0.7558   0.1686
  -9.500   0.3531   0.04115   0.03752  -0.2035   0.7558   0.1956
  -9.000   0.4304   0.03689   0.03334  -0.2072   0.7572   0.2330
  -8.500   0.4492   0.03831   0.03483  -0.2022   0.7580   0.2554
  -8.000   0.5140   0.03835   0.03496  -0.2036   0.7575   0.2877
  -7.500   0.5487   0.04314   0.03983  -0.2002   0.7558   0.3095
  -7.000   0.5953   0.04352   0.04027  -0.1989   0.7558   0.3324
  -6.500   0.6421   0.04385   0.04068  -0.1976   0.7558   0.3585
  -6.000   0.6872   0.04399   0.04089  -0.1960   0.7557   0.3797
  -5.500   0.7311   0.04388   0.04085  -0.1942   0.7554   0.3975
  -5.000   0.8735   0.03184   0.02883  -0.2050   0.7306   0.4288
  -4.500   1.0950   0.01939   0.01569  -0.2304   0.5908   0.4603
  -4.000   0.9504   0.03299   0.02966  -0.2004   0.6188   0.4593
  -3.500   0.9505   0.03553   0.03123  -0.1920   0.4331   0.4710
  -3.000   0.9875   0.03599   0.03124  -0.1887   0.3366   0.4835
  -2.500   1.0295   0.03618   0.03108  -0.1862   0.2628   0.4960
  -2.000   1.0693   0.03660   0.03122  -0.1833   0.2007   0.5088
  -1.000   1.1540   0.03719   0.03138  -0.1781   0.1134   0.5302
  -0.500   1.1977   0.03745   0.03149  -0.1757   0.0845   0.5400
  -0.000   1.2401   0.03786   0.03178  -0.1731   0.0651   0.5491
   0.500   1.2827   0.03829   0.03215  -0.1706   0.0530   0.5576
   1.000   1.3248   0.03874   0.03255  -0.1680   0.0435   0.5659
   1.500   1.3671   0.03921   0.03297  -0.1654   0.0364   0.5726
   2.000   1.4090   0.03970   0.03344  -0.1628   0.0309   0.5804
   2.500   1.4504   0.04020   0.03391  -0.1600   0.0264   0.5862
   3.000   1.4917   0.04074   0.03445  -0.1574   0.0238   0.5925
   3.500   1.5321   0.04130   0.03503  -0.1545   0.0211   0.5986
   4.000   1.5718   0.04192   0.03563  -0.1516   0.0189   0.6035
   4.500   1.6111   0.04259   0.03633  -0.1487   0.0174   0.6083
   5.000   1.6493   0.04333   0.03710  -0.1456   0.0161   0.6133
   5.500   1.6858   0.04417   0.03797  -0.1423   0.0145   0.6177
   6.000   1.7222   0.04507   0.03890  -0.1391   0.0138   0.6214
   6.500   1.7568   0.04607   0.03995  -0.1357   0.0130   0.6251
   7.000   1.7889   0.04726   0.04118  -0.1320   0.0119   0.6286
   7.500   1.8202   0.04854   0.04254  -0.1283   0.0114   0.6319
   8.000   1.8510   0.04987   0.04394  -0.1246   0.0110   0.6350
   8.500   1.8796   0.05134   0.04547  -0.1207   0.0105   0.6379
   9.000   1.9056   0.05304   0.04724  -0.1166   0.0099   0.6404
   9.500   1.9250   0.05531   0.04962  -0.1118   0.0093   0.6427
  10.000   1.9430   0.05776   0.05219  -0.1071   0.0089   0.6447
  10.500   1.9635   0.05997   0.05450  -0.1029   0.0087   0.6467
  11.000   1.9809   0.06248   0.05712  -0.0984   0.0085   0.6487
  11.500   1.9918   0.06568   0.06044  -0.0937   0.0082   0.6508
  12.000   2.0024   0.06895   0.06382  -0.0892   0.0080   0.6530
  12.500   2.0056   0.07307   0.06808  -0.0845   0.0077   0.6546
  13.000   2.0047   0.07770   0.07287  -0.0800   0.0074   0.6557
  13.500   1.9934   0.08380   0.07915  -0.0758   0.0071   0.6565
  14.000   1.9681   0.09224   0.08785  -0.0727   0.0069   0.6573
  14.500   1.9524   0.10017   0.09599  -0.0716   0.0068   0.6581
  15.000   1.9324   0.10925   0.10529  -0.0724   0.0068   0.6589
  15.500   1.9056   0.11993   0.11620  -0.0755   0.0067   0.6596
  16.000   1.8714   0.13236   0.12890  -0.0813   0.0067   0.6602
  16.500   1.8282   0.14697   0.14379  -0.0904   0.0067   0.6607
  17.000   1.7731   0.16485   0.16197  -0.1036   0.0067   0.6609
  17.500   1.7066   0.18642   0.18387  -0.1215   0.0067   0.6609
  18.000   1.6375   0.21031   0.20809  -0.1429   0.0067   0.6607
  18.500   1.5933   0.22962   0.22763  -0.1606   0.0067   0.6608
  19.000   1.5643   0.24600   0.24418  -0.1759   0.0066   0.6612
  19.500   1.5463   0.25985   0.25817  -0.1888   0.0065   0.6617
  20.000   1.5329   0.27280   0.27124  -0.2010   0.0063   0.6625
  20.500   1.5223   0.28543   0.28397  -0.2129   0.0060   0.6633
  21.000   1.5059   0.30174   0.30041  -0.2281   0.0056   0.6637
  21.500   0.8877   0.33457   0.33358  -0.1641   0.0034   0.6540
  22.000   0.8875   0.34471   0.34373  -0.1663   0.0028   0.6550
  22.500   0.8890   0.35016   0.34920  -0.1681   0.0025   0.6560
  23.000   0.8905   0.35479   0.35385  -0.1698   0.0024   0.6569
  23.500   0.8917   0.35899   0.35807  -0.1714   0.0023   0.6578
  24.000   0.8910   0.36665   0.36574  -0.1732   0.0022   0.6587
  24.500   0.8908   0.37432   0.37342  -0.1751   0.0021   0.6597
  25.000   0.8910   0.38265   0.38177  -0.1769   0.0016   0.6606
