  
       XFOIL         Version 6.99
  
 Calculated polar for: NACA 0012                                       
  
 1 1 Reynolds number fixed          Mach number fixed         
  
 xtrf =   1.000 (top)        1.000 (bottom)  
 Mach =   0.000     Re =     2.332 e 6     Ncrit =   9.000
  
   alpha    CL        CD       CDp       CM     Top_Xtr  Bot_Xtr
  ------ -------- --------- --------- -------- -------- --------
 -15.000  -1.6326   0.02508   0.02040  -0.0043   1.0000   0.0104
 -14.500  -1.6101   0.02329   0.01850  -0.0010   1.0000   0.0107
 -14.000  -1.5840   0.02181   0.01693   0.0024   1.0000   0.0109
 -13.500  -1.5571   0.02044   0.01546   0.0060   1.0000   0.0112
 -13.000  -1.5325   0.01897   0.01390   0.0104   1.0000   0.0120
 -12.500  -1.4998   0.01794   0.01282   0.0138   1.0000   0.0126
 -12.000  -1.4602   0.01705   0.01187   0.0161   1.0000   0.0132
 -11.500  -1.4176   0.01626   0.01103   0.0180   1.0000   0.0136
 -11.000  -1.3764   0.01523   0.00994   0.0202   1.0000   0.0148
 -10.500  -1.3314   0.01446   0.00915   0.0218   1.0000   0.0159
 -10.000  -1.2842   0.01382   0.00847   0.0232   1.0000   0.0166
  -9.500  -1.2378   0.01303   0.00767   0.0247   1.0000   0.0184
  -9.000  -1.1891   0.01244   0.00706   0.0259   1.0000   0.0198
  -8.500  -1.1406   0.01179   0.00641   0.0271   1.0000   0.0219
  -8.000  -1.0908   0.01127   0.00589   0.0282   1.0000   0.0238
  -7.500  -1.0415   0.01070   0.00534   0.0294   1.0000   0.0272
  -7.000  -0.9920   0.01020   0.00486   0.0306   1.0000   0.0307
  -6.500  -0.9431   0.00975   0.00443   0.0321   1.0000   0.0349
  -6.000  -0.8907   0.00928   0.00401   0.0327   0.9989   0.0414
  -5.500  -0.8237   0.00876   0.00357   0.0301   0.9897   0.0511
  -5.000  -0.7627   0.00834   0.00317   0.0290   0.9396   0.0633
  -4.500  -0.7175   0.00844   0.00278   0.0315   0.7426   0.0799
  -4.000  -0.6638   0.00811   0.00248   0.0319   0.7215   0.1015
  -3.500  -0.6102   0.00772   0.00219   0.0324   0.7106   0.1326
  -3.000  -0.5559   0.00732   0.00194   0.0327   0.7013   0.1697
  -2.500  -0.5016   0.00691   0.00171   0.0331   0.6914   0.2159
  -2.000  -0.4470   0.00652   0.00150   0.0334   0.6779   0.2657
  -1.500  -0.3923   0.00615   0.00130   0.0336   0.6596   0.3208
  -0.500  -0.2823   0.00559   0.00101   0.0341   0.6082   0.4346
  -0.000  -0.2272   0.00537   0.00091   0.0343   0.5764   0.4955
   0.500  -0.1723   0.00516   0.00082   0.0346   0.5414   0.5620
   1.000  -0.1182   0.00490   0.00074   0.0350   0.5040   0.6459
   1.500  -0.0648   0.00468   0.00074   0.0356   0.4652   0.7543
   2.000  -0.0077   0.00480   0.00079   0.0355   0.4232   0.7752
   2.500   0.0496   0.00498   0.00085   0.0353   0.3802   0.7890
   3.000   0.1065   0.00519   0.00094   0.0352   0.3338   0.8011
   3.500   0.1636   0.00543   0.00105   0.0350   0.2891   0.8104
   4.000   0.2204   0.00570   0.00119   0.0349   0.2446   0.8192
   4.500   0.2770   0.00602   0.00136   0.0347   0.2008   0.8273
   5.000   0.3332   0.00636   0.00156   0.0346   0.1600   0.8356
   5.500   0.3893   0.00671   0.00179   0.0345   0.1259   0.8436
   6.000   0.4451   0.00707   0.00206   0.0345   0.0984   0.8528
   6.500   0.5006   0.00744   0.00235   0.0345   0.0764   0.8629
   7.000   0.5560   0.00778   0.00266   0.0346   0.0622   0.8755
   7.500   0.6107   0.00816   0.00301   0.0347   0.0502   0.8893
   8.000   0.6652   0.00854   0.00339   0.0349   0.0416   0.9015
   8.500   0.7192   0.00894   0.00380   0.0351   0.0351   0.9144
   9.000   0.7727   0.00933   0.00422   0.0355   0.0311   0.9288
   9.500   0.8253   0.00975   0.00469   0.0360   0.0277   0.9444
  10.000   0.8765   0.01025   0.00521   0.0367   0.0246   0.9605
  10.500   0.9283   0.01076   0.00575   0.0373   0.0223   0.9749
  11.000   0.9834   0.01135   0.00637   0.0370   0.0204   0.9854
  11.500   1.0412   0.01201   0.00703   0.0360   0.0185   0.9925
  12.000   1.1018   0.01276   0.00782   0.0342   0.0171   0.9954
  12.500   1.1626   0.01349   0.00858   0.0323   0.0160   0.9979
  13.000   1.2182   0.01451   0.00964   0.0312   0.0145   1.0000
  13.500   1.2567   0.01520   0.01038   0.0340   0.0141   1.0000
  14.000   1.2976   0.01598   0.01121   0.0360   0.0135   1.0000
  14.500   1.3391   0.01691   0.01218   0.0377   0.0128   1.0000
  15.000   1.3762   0.01824   0.01359   0.0397   0.0119   1.0000
  15.500   1.4140   0.01941   0.01486   0.0414   0.0115   1.0000
  16.000   1.4496   0.02062   0.01615   0.0434   0.0112   1.0000
  16.500   1.4754   0.02204   0.01766   0.0465   0.0109   1.0000
  17.000   1.4951   0.02391   0.01964   0.0495   0.0106   1.0000
  17.500   1.5100   0.02663   0.02249   0.0511   0.0102   1.0000
  18.000   1.5183   0.03096   0.02697   0.0502   0.0099   1.0000
  18.500   1.5129   0.03756   0.03377   0.0474   0.0096   1.0000
  19.000   1.4873   0.04720   0.04367   0.0428   0.0094   1.0000
  19.500   1.4512   0.05888   0.05561   0.0368   0.0093   1.0000
  20.000   1.3903   0.07486   0.07188   0.0285   0.0093   1.0000
  20.500   1.3121   0.09462   0.09194   0.0182   0.0094   1.0000
  21.000   1.2341   0.11533   0.11292   0.0074   0.0095   1.0000
  21.500   1.1576   0.13704   0.13489  -0.0044   0.0096   1.0000
  22.000   1.1003   0.15658   0.15464  -0.0157   0.0096   1.0000
  22.500   1.0601   0.17372   0.17194  -0.0262   0.0093   1.0000
  23.000   1.0442   0.18629   0.18461  -0.0342   0.0092   1.0000
  23.500   1.0307   0.19878   0.19722  -0.0425   0.0091   1.0000
  24.000   1.0171   0.21187   0.21041  -0.0512   0.0088   1.0000
