  
       XFOIL         Version 6.99
  
 Calculated polar for: NACA 0012                                       
  
 1 1 Reynolds number fixed          Mach number fixed         
  
 xtrf =   1.000 (top)        1.000 (bottom)  
 Mach =   0.000     Re =     1.521 e 6     Ncrit =   9.000
  
   alpha    CL        CD       CDp       CM     Top_Xtr  Bot_Xtr
  ------ -------- --------- --------- -------- -------- --------
 -15.000  -1.7363   0.05468   0.05003   0.0262   0.7921   0.0102
 -14.500  -1.7395   0.04942   0.04449   0.0287   0.7420   0.0104
 -14.000  -1.7358   0.04526   0.04014   0.0319   0.7348   0.0108
 -13.500  -1.7271   0.04177   0.03649   0.0354   0.7310   0.0111
 -13.000  -1.7156   0.03870   0.03326   0.0392   0.7276   0.0115
 -12.500  -1.7006   0.03604   0.03043   0.0430   0.7248   0.0117
 -12.000  -1.6810   0.03378   0.02803   0.0467   0.7222   0.0120
 -11.500  -1.6716   0.03076   0.02483   0.0517   0.7195   0.0127
 -11.000  -1.6493   0.02876   0.02272   0.0556   0.7169   0.0133
 -10.500  -1.6223   0.02711   0.02097   0.0592   0.7139   0.0139
 -10.000  -1.5923   0.02566   0.01941   0.0625   0.7113   0.0145
  -9.500  -1.5617   0.02426   0.01788   0.0659   0.7084   0.0151
  -9.000  -1.5311   0.02278   0.01634   0.0695   0.7055   0.0163
  -8.500  -1.4956   0.02168   0.01516   0.0724   0.7022   0.0173
  -8.000  -1.4577   0.02074   0.01413   0.0751   0.6993   0.0181
  -7.500  -1.4220   0.01950   0.01287   0.0783   0.6957   0.0200
  -7.000  -1.3821   0.01865   0.01195   0.0808   0.6924   0.0215
  -6.500  -1.3422   0.01770   0.01098   0.0835   0.6891   0.0237
  -6.000  -1.3002   0.01692   0.01017   0.0859   0.6852   0.0259
  -5.500  -1.2584   0.01607   0.00932   0.0883   0.6822   0.0291
  -5.000  -1.2148   0.01534   0.00858   0.0905   0.6780   0.0329
  -4.500  -1.1708   0.01464   0.00789   0.0927   0.6735   0.0373
  -4.000  -1.1264   0.01395   0.00721   0.0949   0.6696   0.0437
  -3.500  -1.0820   0.01324   0.00658   0.0971   0.6640   0.0537
  -3.000  -1.0374   0.01256   0.00597   0.0993   0.6582   0.0669
  -2.500  -0.9927   0.01192   0.00541   0.1015   0.6518   0.0847
  -2.000  -0.9499   0.01126   0.00488   0.1041   0.6441   0.1098
  -1.500  -0.9102   0.01062   0.00440   0.1074   0.6358   0.1434
  -1.000  -0.8676   0.00995   0.00392   0.1101   0.6258   0.1881
  -0.500  -0.8254   0.00926   0.00346   0.1128   0.6151   0.2432
  -0.000  -0.7833   0.00857   0.00303   0.1156   0.6032   0.3078
   0.500  -0.7408   0.00788   0.00261   0.1183   0.5892   0.3814
   1.000  -0.6989   0.00712   0.00219   0.1212   0.5744   0.4727
   1.500  -0.6734   0.00577   0.00193   0.1275   0.5593   0.7022
   2.000  -0.6161   0.00554   0.00151   0.1272   0.5400   0.7475
   2.500  -0.5585   0.00569   0.00157   0.1272   0.5191   0.7563
   3.000  -0.5006   0.00585   0.00169   0.1271   0.4960   0.7631
   3.500  -0.4425   0.00607   0.00182   0.1269   0.4699   0.7679
   4.000  -0.3844   0.00624   0.00190   0.1266   0.4426   0.7708
   4.500  -0.3264   0.00630   0.00188   0.1263   0.4126   0.7747
   5.000  -0.2681   0.00649   0.00200   0.1259   0.3793   0.7777
   5.500  -0.2098   0.00672   0.00214   0.1255   0.3446   0.7806
   6.000  -0.1516   0.00704   0.00236   0.1251   0.3069   0.7840
   6.500  -0.0932   0.00746   0.00265   0.1246   0.2667   0.7862
   7.000  -0.0353   0.00763   0.00270   0.1240   0.2277   0.7859
   7.500   0.0224   0.00783   0.00276   0.1234   0.1884   0.7853
   8.000   0.0798   0.00810   0.00288   0.1228   0.1507   0.7846
   8.500   0.1372   0.00839   0.00305   0.1222   0.1194   0.7839
   9.000   0.1945   0.00872   0.00327   0.1215   0.0938   0.7832
   9.500   0.2516   0.00904   0.00352   0.1209   0.0756   0.7824
  10.000   0.3084   0.00943   0.00383   0.1203   0.0600   0.7816
  10.500   0.3651   0.00982   0.00418   0.1196   0.0497   0.7809
  11.000   0.4215   0.01023   0.00457   0.1190   0.0422   0.7801
  11.500   0.4774   0.01072   0.00504   0.1184   0.0362   0.7794
  12.000   0.5333   0.01117   0.00550   0.1178   0.0322   0.7787
  12.500   0.5887   0.01169   0.00605   0.1172   0.0290   0.7779
  13.000   0.6430   0.01239   0.00677   0.1166   0.0258   0.7772
  13.500   0.6977   0.01292   0.00735   0.1160   0.0239   0.7765
  14.000   0.7503   0.01382   0.00829   0.1154   0.0216   0.7759
  14.500   0.8037   0.01449   0.00903   0.1148   0.0204   0.7752
  15.000   0.8555   0.01537   0.00996   0.1141   0.0190   0.7744
  15.500   0.9051   0.01653   0.01122   0.1135   0.0177   0.7738
  16.000   0.9551   0.01753   0.01231   0.1128   0.0169   0.7731
  16.500   1.0030   0.01875   0.01362   0.1120   0.0160   0.7725
  17.000   1.0436   0.02099   0.01600   0.1106   0.0149   0.7719
  17.500   1.0866   0.02295   0.01811   0.1086   0.0145   0.7713
  18.000   1.1247   0.02612   0.02146   0.1040   0.0140   0.7708
  18.500   1.1360   0.03174   0.02726   0.0978   0.0137   0.7702
  19.000   1.1362   0.03833   0.03401   0.0927   0.0134   0.7698
  19.500   1.1223   0.04672   0.04257   0.0871   0.0131   0.7696
  20.000   1.0930   0.05739   0.05344   0.0805   0.0130   0.7695
  20.500   1.0503   0.07055   0.06680   0.0728   0.0129   0.7693
  21.000   1.0005   0.08534   0.08180   0.0646   0.0129   0.7691
  21.500   0.9521   0.10056   0.09720   0.0564   0.0128   0.7689
  22.000   0.9107   0.11522   0.11201   0.0486   0.0127   0.7687
  22.500   0.8765   0.12919   0.12611   0.0412   0.0125   0.7686
  23.000   0.8498   0.14231   0.13934   0.0340   0.0121   0.7684
  23.500   0.8211   0.15658   0.15375   0.0262   0.0119   0.7682
  25.000   0.3993   0.19771   0.19547   0.0240   0.0097   0.7696
