  
       XFOIL         Version 6.99
  
 Calculated polar for: NACA 0012                                       
  
 1 1 Reynolds number fixed          Mach number fixed         
  
 xtrf =   1.000 (top)        1.000 (bottom)  
 Mach =   0.000     Re =     2.332 e 6     Ncrit =   9.000
  
   alpha    CL        CD       CDp       CM     Top_Xtr  Bot_Xtr
  ------ -------- --------- --------- -------- -------- --------
 -15.000  -1.0005   0.01437   0.00916  -0.0939   0.7696   0.0155
 -14.500  -0.9488   0.01366   0.00840  -0.0942   0.7698   0.0165
 -14.000  -0.8964   0.01300   0.00767  -0.0945   0.7699   0.0173
 -13.500  -0.8440   0.01225   0.00690  -0.0948   0.7701   0.0190
 -13.000  -0.7899   0.01170   0.00631  -0.0952   0.7706   0.0203
 -12.500  -0.7360   0.01106   0.00566  -0.0955   0.7712   0.0225
 -12.000  -0.6808   0.01060   0.00517  -0.0960   0.7719   0.0243
 -11.500  -0.6258   0.01005   0.00462  -0.0964   0.7726   0.0277
 -11.000  -0.5700   0.00959   0.00416  -0.0968   0.7734   0.0312
 -10.500  -0.5138   0.00918   0.00376  -0.0973   0.7742   0.0356
 -10.000  -0.4573   0.00878   0.00339  -0.0978   0.7749   0.0414
  -9.500  -0.4007   0.00838   0.00304  -0.0983   0.7757   0.0500
  -9.000  -0.3437   0.00801   0.00273  -0.0988   0.7765   0.0608
  -8.500  -0.2865   0.00767   0.00246  -0.0993   0.7772   0.0748
  -8.000  -0.2292   0.00732   0.00221  -0.0998   0.7779   0.0955
  -7.500  -0.1716   0.00701   0.00201  -0.1004   0.7786   0.1198
  -7.000  -0.1140   0.00669   0.00182  -0.1010   0.7791   0.1517
  -6.500  -0.0564   0.00637   0.00162  -0.1014   0.7769   0.1869
  -6.000   0.0012   0.00611   0.00146  -0.1018   0.7732   0.2240
  -5.500   0.0590   0.00591   0.00139  -0.1023   0.7702   0.2647
  -5.000   0.1173   0.00565   0.00126  -0.1028   0.7692   0.3032
  -4.500   0.1757   0.00542   0.00116  -0.1032   0.7676   0.3411
  -4.000   0.2341   0.00522   0.00107  -0.1037   0.7652   0.3766
  -3.500   0.2925   0.00504   0.00100  -0.1040   0.7617   0.4102
  -3.000   0.3506   0.00493   0.00096  -0.1043   0.7564   0.4420
  -2.500   0.4089   0.00479   0.00093  -0.1047   0.7504   0.4718
  -2.000   0.4668   0.00469   0.00089  -0.1049   0.7388   0.4986
  -1.500   0.5113   0.00560   0.00122  -0.1026   0.5502   0.5225
  -1.000   0.5596   0.00622   0.00150  -0.1010   0.4476   0.5438
  -0.500   0.6090   0.00673   0.00175  -0.0997   0.3701   0.5636
  -0.000   0.6585   0.00722   0.00202  -0.0984   0.3035   0.5819
   0.500   0.7081   0.00771   0.00231  -0.0970   0.2448   0.5981
   1.000   0.7574   0.00823   0.00263  -0.0957   0.1920   0.6127
   1.500   0.8068   0.00874   0.00298  -0.0943   0.1485   0.6259
   2.000   0.8562   0.00927   0.00336  -0.0929   0.1127   0.6367
   2.500   0.9060   0.00978   0.00374  -0.0916   0.0867   0.6462
   3.000   0.9559   0.01027   0.00415  -0.0904   0.0680   0.6548
   3.500   1.0054   0.01078   0.00457  -0.0890   0.0544   0.6617
   4.000   1.0546   0.01130   0.00504  -0.0876   0.0440   0.6681
   4.500   1.1035   0.01182   0.00552  -0.0861   0.0372   0.6737
   5.000   1.1514   0.01237   0.00604  -0.0845   0.0316   0.6779
   5.500   1.1990   0.01292   0.00657  -0.0829   0.0281   0.6820
   6.000   1.2450   0.01349   0.00714  -0.0809   0.0252   0.6859
   6.500   1.2862   0.01412   0.00777  -0.0780   0.0222   0.6887
   7.000   1.3298   0.01471   0.00838  -0.0757   0.0206   0.6918
   7.500   1.3714   0.01551   0.00918  -0.0731   0.0184   0.6951
   8.000   1.4139   0.01616   0.00988  -0.0708   0.0175   0.6976
   8.500   1.4540   0.01698   0.01072  -0.0681   0.0161   0.7006
   9.000   1.4922   0.01790   0.01168  -0.0652   0.0150   0.7033
   9.500   1.5308   0.01872   0.01257  -0.0625   0.0143   0.7061
  10.000   1.5667   0.01971   0.01362  -0.0595   0.0134   0.7089
  10.500   1.5974   0.02109   0.01508  -0.0559   0.0123   0.7112
  11.000   1.6312   0.02218   0.01625  -0.0528   0.0121   0.7139
  11.500   1.6625   0.02343   0.01759  -0.0495   0.0117   0.7167
  12.000   1.6913   0.02487   0.01912  -0.0461   0.0112   0.7194
  12.500   1.7166   0.02656   0.02089  -0.0424   0.0107   0.7218
  13.000   1.7341   0.02885   0.02331  -0.0381   0.0100   0.7249
  13.500   1.7537   0.03099   0.02559  -0.0344   0.0097   0.7292
  14.000   1.7724   0.03323   0.02796  -0.0308   0.0095   0.7338
  14.500   1.7882   0.03573   0.03076  -0.0274   0.0093   0.8275
  15.000   1.7967   0.03839   0.03386  -0.0232   0.0091   0.9999
  15.500   1.8031   0.04198   0.03759  -0.0198   0.0089   0.9999
  16.000   1.8056   0.04624   0.04198  -0.0169   0.0086   0.9999
  16.500   1.8008   0.05160   0.04750  -0.0147   0.0084   0.9999
  17.000   1.7878   0.05882   0.05492  -0.0142   0.0082   0.9999
  17.500   1.7622   0.06892   0.06525  -0.0163   0.0080   0.9999
  18.000   1.7198   0.08264   0.07927  -0.0216   0.0079   0.9999
  18.500   1.6582   0.10007   0.09702  -0.0297   0.0079   0.9999
  19.000   1.5810   0.12099   0.11827  -0.0407   0.0080   0.9999
  19.500   1.4924   0.14534   0.14297  -0.0552   0.0082   0.9999
  20.000   1.4075   0.17109   0.16905  -0.0725   0.0083   0.9999
  20.500   1.3514   0.19229   0.19048  -0.0879   0.0082   0.9999
  21.000   1.3146   0.21046   0.20882  -0.1016   0.0081   0.9999
  21.500   1.2948   0.22497   0.22345  -0.1128   0.0077   0.9999
  22.000   1.2829   0.23780   0.23639  -0.1229   0.0076   0.9999
  22.500   1.2713   0.25104   0.24976  -0.1333   0.0074   0.9999
