  
       XFOIL         Version 6.99
  
 Calculated polar for: NACA 0012                                       
  
 1 1 Reynolds number fixed          Mach number fixed         
  
 xtrf =   1.000 (top)        1.000 (bottom)  
 Mach =   0.000     Re =     2.332 e 6     Ncrit =   9.000
  
   alpha    CL        CD       CDp       CM     Top_Xtr  Bot_Xtr
  ------ -------- --------- --------- -------- -------- --------
 -15.000  -1.3238   0.01730   0.01267  -0.0469   1.0001   0.0124
 -14.500  -1.2882   0.01620   0.01152  -0.0443   1.0001   0.0132
 -14.000  -1.2365   0.01528   0.01056  -0.0447   0.9977   0.0140
 -13.500  -1.1769   0.01445   0.00968  -0.0467   0.9942   0.0146
 -13.000  -1.1221   0.01345   0.00862  -0.0476   0.9851   0.0159
 -12.500  -1.0692   0.01272   0.00785  -0.0478   0.9706   0.0170
 -12.000  -1.0199   0.01218   0.00723  -0.0470   0.9506   0.0178
 -11.500  -0.9713   0.01150   0.00647  -0.0460   0.9291   0.0199
 -11.000  -0.9199   0.01103   0.00591  -0.0455   0.9102   0.0213
 -10.500  -0.8680   0.01046   0.00528  -0.0451   0.8943   0.0238
 -10.000  -0.8144   0.01004   0.00480  -0.0450   0.8818   0.0259
  -9.500  -0.7609   0.00956   0.00430  -0.0448   0.8711   0.0297
  -9.000  -0.7064   0.00912   0.00385  -0.0448   0.8630   0.0341
  -8.500  -0.6516   0.00872   0.00344  -0.0448   0.8556   0.0399
  -8.000  -0.5960   0.00832   0.00307  -0.0449   0.8511   0.0473
  -7.500  -0.5402   0.00795   0.00273  -0.0450   0.8465   0.0569
  -6.500  -0.4284   0.00722   0.00212  -0.0452   0.8332   0.0892
  -6.000  -0.3724   0.00686   0.00185  -0.0453   0.8266   0.1149
  -5.500  -0.3160   0.00651   0.00162  -0.0455   0.8208   0.1458
  -5.000  -0.2594   0.00614   0.00140  -0.0457   0.8162   0.1850
  -4.500  -0.2025   0.00584   0.00123  -0.0459   0.8106   0.2251
  -4.000  -0.1456   0.00556   0.00109  -0.0462   0.8043   0.2698
  -3.500  -0.0882   0.00528   0.00097  -0.0464   0.7990   0.3145
  -3.000  -0.0309   0.00507   0.00088  -0.0466   0.7910   0.3582
  -2.500   0.0268   0.00487   0.00082  -0.0469   0.7828   0.4009
  -2.000   0.0842   0.00473   0.00077  -0.0471   0.7705   0.4411
  -1.500   0.1417   0.00460   0.00073  -0.0473   0.7529   0.4800
  -1.000   0.1941   0.00494   0.00077  -0.0464   0.6274   0.5157
  -0.500   0.2476   0.00528   0.00089  -0.0459   0.5378   0.5491
  -0.000   0.3020   0.00555   0.00101  -0.0456   0.4682   0.5802
   1.000   0.4110   0.00614   0.00130  -0.0449   0.3466   0.6321
   1.500   0.4654   0.00650   0.00149  -0.0446   0.2896   0.6526
   2.000   0.5194   0.00691   0.00171  -0.0442   0.2360   0.6686
   2.500   0.5734   0.00734   0.00197  -0.0437   0.1874   0.6809
   3.000   0.6273   0.00778   0.00224  -0.0433   0.1465   0.6903
   3.500   0.6810   0.00825   0.00254  -0.0428   0.1117   0.6980
   4.500   0.7879   0.00905   0.00316  -0.0418   0.0683   0.7122
   5.000   0.8409   0.00945   0.00352  -0.0412   0.0542   0.7204
   5.500   0.8938   0.00983   0.00389  -0.0406   0.0451   0.7328
   6.000   0.9431   0.00989   0.00433  -0.0393   0.0381   0.8735
   6.500   1.0023   0.01020   0.00483  -0.0400   0.0324   0.9999
   7.000   1.0526   0.01073   0.00532  -0.0389   0.0281   0.9999
   7.500   1.1027   0.01126   0.00583  -0.0379   0.0249   0.9999
   8.000   1.1526   0.01179   0.00637  -0.0368   0.0227   0.9999
   8.500   1.2008   0.01248   0.00704  -0.0355   0.0200   0.9999
   9.000   1.2499   0.01303   0.00762  -0.0343   0.0189   0.9999
   9.500   1.2967   0.01375   0.00833  -0.0328   0.0171   0.9999
  10.000   1.3430   0.01446   0.00908  -0.0313   0.0161   0.9999
  10.500   1.3882   0.01518   0.00983  -0.0296   0.0152   0.9999
  11.000   1.4303   0.01610   0.01078  -0.0275   0.0140   0.9999
  11.500   1.4709   0.01702   0.01177  -0.0252   0.0134   0.9999
  12.000   1.5093   0.01787   0.01267  -0.0225   0.0128   0.9999
  12.500   1.5422   0.01884   0.01370  -0.0190   0.0122   0.9999
  13.000   1.5713   0.02008   0.01500  -0.0152   0.0115   0.9999
  13.500   1.5947   0.02172   0.01676  -0.0110   0.0109   0.9999
  14.000   1.6222   0.02313   0.01825  -0.0077   0.0107   0.9999
  14.500   1.6464   0.02481   0.02003  -0.0044   0.0104   0.9999
  15.000   1.6673   0.02681   0.02214  -0.0011   0.0101   0.9999
  15.500   1.6842   0.02920   0.02465   0.0020   0.0098   0.9999
  16.000   1.6963   0.03214   0.02770   0.0049   0.0095   0.9999
  16.500   1.7011   0.03594   0.03164   0.0075   0.0092   0.9999
  17.000   1.6938   0.04122   0.03711   0.0095   0.0089   0.9999
  17.500   1.6722   0.04910   0.04524   0.0092   0.0086   0.9999
  18.000   1.6594   0.05726   0.05361   0.0068   0.0086   0.9999
  18.500   1.6310   0.06840   0.06499   0.0022   0.0085   0.9999
  19.000   1.5782   0.08398   0.08087  -0.0052   0.0085   0.9999
  19.500   1.4855   0.10691   0.10416  -0.0169   0.0086   0.9999
  20.000   1.3669   0.13622   0.13387  -0.0332   0.0086   0.9999
  20.500   1.2969   0.15816   0.15607  -0.0466   0.0087   0.9999
  21.000   1.2451   0.17792   0.17604  -0.0596   0.0086   0.9999
  21.500   1.2160   0.19350   0.19176  -0.0703   0.0086   0.9999
  22.000   1.1994   0.20668   0.20507  -0.0796   0.0085   0.9999
  22.500   1.1864   0.21956   0.21806  -0.0890   0.0083   0.9999
  23.000   1.1742   0.23278   0.23139  -0.0987   0.0081   0.9999
  23.500   1.1531   0.24999   0.24874  -0.1112   0.0077   0.9999
  24.000   1.0714   0.31032   0.30923  -0.1432   0.0049   0.9999
  24.500   1.0857   0.31759   0.31651  -0.1484   0.0049   0.9999
  25.000   0.6901   0.27496   0.27404  -0.0830   0.0049   0.9999
