  
       XFOIL         Version 6.99
  
 Calculated polar for: NACA 0012                                       
  
 1 1 Reynolds number fixed          Mach number fixed         
  
 xtrf =   1.000 (top)        1.000 (bottom)  
 Mach =   0.000     Re =     1.521 e 6     Ncrit =   9.000
  
   alpha    CL        CD       CDp       CM     Top_Xtr  Bot_Xtr
  ------ -------- --------- --------- -------- -------- --------
 -15.000  -1.6387   0.03815   0.03357   0.0048   0.9999   0.0111
 -14.500  -1.6367   0.03417   0.02943   0.0081   0.9999   0.0115
 -14.000  -1.6249   0.03120   0.02633   0.0115   0.9999   0.0119
 -13.500  -1.6076   0.02876   0.02376   0.0149   0.9999   0.0123
 -13.000  -1.5863   0.02672   0.02160   0.0183   0.9999   0.0128
 -12.500  -1.5609   0.02502   0.01979   0.0216   0.9999   0.0132
 -12.000  -1.5400   0.02303   0.01766   0.0257   0.9999   0.0137
 -11.500  -1.5147   0.02137   0.01591   0.0296   0.9999   0.0145
 -11.000  -1.4835   0.02013   0.01460   0.0331   0.9999   0.0152
 -10.500  -1.4495   0.01907   0.01345   0.0363   0.9999   0.0159
 -10.000  -1.4162   0.01794   0.01224   0.0398   0.9999   0.0168
  -9.500  -1.3810   0.01692   0.01118   0.0432   0.9999   0.0181
  -9.000  -1.3398   0.01615   0.01036   0.0457   0.9999   0.0193
  -8.500  -1.2978   0.01523   0.00939   0.0480   0.9999   0.0209
  -8.000  -1.2530   0.01448   0.00863   0.0499   0.9999   0.0228
  -7.500  -1.2072   0.01373   0.00786   0.0516   0.9999   0.0250
  -7.000  -1.1546   0.01310   0.00720   0.0520   0.9513   0.0278
  -6.500  -1.1131   0.01296   0.00650   0.0550   0.7395   0.0314
  -6.000  -1.0640   0.01243   0.00592   0.0562   0.7285   0.0358
  -5.500  -1.0143   0.01192   0.00539   0.0574   0.7206   0.0420
  -5.000  -0.9641   0.01142   0.00490   0.0584   0.7140   0.0501
  -4.500  -0.9134   0.01094   0.00446   0.0595   0.7076   0.0618
  -4.000  -0.8625   0.01048   0.00405   0.0604   0.7016   0.0783
  -3.500  -0.8110   0.00996   0.00365   0.0613   0.6951   0.1008
  -3.000  -0.7600   0.00940   0.00326   0.0623   0.6886   0.1339
  -2.500  -0.7085   0.00882   0.00287   0.0632   0.6811   0.1757
  -2.000  -0.6572   0.00824   0.00253   0.0641   0.6726   0.2268
  -1.500  -0.6055   0.00770   0.00221   0.0650   0.6625   0.2843
  -1.000  -0.5539   0.00718   0.00192   0.0659   0.6494   0.3482
  -0.500  -0.5020   0.00669   0.00167   0.0668   0.6339   0.4169
  -0.000  -0.4504   0.00621   0.00144   0.0677   0.6157   0.4935
   0.500  -0.4002   0.00561   0.00118   0.0688   0.5952   0.5953
   1.000  -0.3523   0.00499   0.00104   0.0706   0.5711   0.7540
   1.500  -0.2950   0.00507   0.00104   0.0706   0.5438   0.7714
   2.000  -0.2376   0.00516   0.00106   0.0706   0.5131   0.7828
   2.500  -0.1799   0.00529   0.00108   0.0704   0.4791   0.7904
   3.000  -0.1222   0.00542   0.00113   0.0702   0.4432   0.7971
   3.500  -0.0644   0.00560   0.00119   0.0699   0.4043   0.8018
   4.000  -0.0066   0.00583   0.00126   0.0696   0.3627   0.8055
   4.500   0.0509   0.00602   0.00135   0.0693   0.3201   0.8099
   5.000   0.1081   0.00630   0.00148   0.0690   0.2752   0.8135
   5.500   0.1652   0.00662   0.00165   0.0687   0.2302   0.8169
   6.000   0.2220   0.00699   0.00187   0.0685   0.1881   0.8206
   6.500   0.2784   0.00736   0.00209   0.0682   0.1485   0.8246
   7.000   0.3351   0.00774   0.00235   0.0679   0.1166   0.8253
   7.500   0.3916   0.00814   0.00264   0.0675   0.0909   0.8258
   8.000   0.4477   0.00858   0.00298   0.0672   0.0708   0.8264
   8.500   0.5038   0.00899   0.00334   0.0669   0.0578   0.8272
   9.000   0.5595   0.00943   0.00375   0.0667   0.0479   0.8281
   9.500   0.6147   0.00990   0.00420   0.0665   0.0406   0.8291
  10.000   0.6696   0.01039   0.00470   0.0663   0.0352   0.8303
  10.500   0.7239   0.01096   0.00528   0.0662   0.0309   0.8317
  11.000   0.7777   0.01155   0.00587   0.0660   0.0274   0.8333
  11.500   0.8312   0.01213   0.00651   0.0660   0.0251   0.8352
  12.000   0.8827   0.01295   0.00735   0.0661   0.0225   0.8373
  12.500   0.9351   0.01355   0.00804   0.0661   0.0212   0.8403
  13.000   0.9854   0.01433   0.00889   0.0663   0.0195   0.8450
  13.500   1.0340   0.01529   0.00996   0.0666   0.0182   0.8507
  14.000   1.0827   0.01612   0.01090   0.0668   0.0173   0.8579
  14.500   1.1285   0.01715   0.01204   0.0674   0.0162   0.8698
  15.000   1.1688   0.01860   0.01369   0.0684   0.0153   0.8889
  15.500   1.2100   0.01958   0.01489   0.0695   0.0147   0.9206
  16.000   1.2453   0.02082   0.01636   0.0713   0.0141   0.9699
  16.500   1.2920   0.02267   0.01834   0.0694   0.0134   1.0001
  17.000   1.3009   0.02543   0.02123   0.0722   0.0129   1.0001
  17.500   1.2982   0.03202   0.02808   0.0675   0.0125   1.0001
  18.000   1.3030   0.03789   0.03413   0.0639   0.0123   1.0001
  18.500   1.2925   0.04590   0.04236   0.0592   0.0122   1.0001
  19.000   1.2650   0.05652   0.05321   0.0532   0.0121   1.0001
  19.500   1.2193   0.07018   0.06711   0.0458   0.0121   1.0001
  20.000   1.1616   0.08646   0.08365   0.0371   0.0121   1.0001
  20.500   1.1042   0.10344   0.10087   0.0282   0.0121   1.0001
  21.000   1.0558   0.11962   0.11725   0.0198   0.0121   1.0001
  21.500   1.0159   0.13500   0.13280   0.0116   0.0120   1.0001
  22.000   0.9818   0.15000   0.14796   0.0033   0.0118   1.0001
  22.500   0.9553   0.16428   0.16238  -0.0049   0.0116   1.0001
  23.000   0.9217   0.18119   0.17947  -0.0148   0.0113   1.0001
  23.500   0.7605   0.25377   0.25231  -0.0458   0.0086   1.0001
  24.000   0.7776   0.25938   0.25792  -0.0501   0.0082   1.0001
  24.500   0.7953   0.26412   0.26267  -0.0542   0.0080   1.0001
  25.000   0.5046   0.22268   0.22142  -0.0139   0.0081   1.0001
