  
       XFOIL         Version 6.99
  
 Calculated polar for: NACA 0012                                       
  
 1 1 Reynolds number fixed          Mach number fixed         
  
 xtrf =   1.000 (top)        1.000 (bottom)  
 Mach =   0.000     Re =     2.332 e 6     Ncrit =   9.000
  
   alpha    CL        CD       CDp       CM     Top_Xtr  Bot_Xtr
  ------ -------- --------- --------- -------- -------- --------
 -15.000  -0.3355   0.01696   0.01254  -0.1918   0.7642   0.0265
 -14.500  -0.2818   0.01683   0.01240  -0.1926   0.7647   0.0292
 -14.000  -0.2287   0.01680   0.01237  -0.1932   0.7652   0.0323
 -13.500  -0.1760   0.01681   0.01240  -0.1936   0.7658   0.0373
 -13.000  -0.1241   0.01696   0.01256  -0.1938   0.7664   0.0429
 -12.500  -0.0735   0.01727   0.01291  -0.1937   0.7672   0.0502
 -12.000  -0.0265   0.01797   0.01366  -0.1929   0.7682   0.0596
 -11.500   0.0118   0.01978   0.01551  -0.1907   0.7695   0.0706
 -11.000   0.0600   0.02051   0.01630  -0.1901   0.7697   0.0843
 -10.500   0.1102   0.02100   0.01687  -0.1897   0.7698   0.1045
 -10.000   0.1608   0.02144   0.01739  -0.1894   0.7698   0.1272
  -9.500   0.2118   0.02185   0.01790  -0.1891   0.7699   0.1554
  -9.000   0.2628   0.02229   0.01844  -0.1887   0.7699   0.1859
  -8.500   0.3138   0.02274   0.01899  -0.1883   0.7700   0.2168
  -8.000   0.3646   0.02322   0.01956  -0.1878   0.7700   0.2472
  -7.500   0.4154   0.02342   0.01986  -0.1871   0.7700   0.2786
  -7.000   0.4652   0.02335   0.01989  -0.1863   0.7698   0.3071
  -6.500   0.4593   0.02418   0.02079  -0.1772   0.7666   0.3253
  -6.000   0.7232   0.00959   0.00584  -0.2089   0.7357   0.3878
  -5.500   0.7917   0.00833   0.00450  -0.2110   0.7311   0.4120
  -5.000   0.8490   0.00820   0.00443  -0.2112   0.7287   0.4323
  -4.500   0.9195   0.00654   0.00272  -0.2137   0.7307   0.4528
  -4.000   0.9784   0.00608   0.00233  -0.2140   0.7273   0.4708
  -3.500   0.9737   0.00823   0.00366  -0.2019   0.4917   0.4835
  -3.000   0.9595   0.01025   0.00542  -0.1883   0.4093   0.4946
  -2.500   0.9538   0.01386   0.00884  -0.1788   0.3423   0.5052
  -2.000   0.9657   0.01650   0.01130  -0.1721   0.2832   0.5180
  -1.500   0.9878   0.01816   0.01275  -0.1665   0.2305   0.5297
  -1.000   1.0157   0.01938   0.01375  -0.1618   0.1802   0.5405
  -0.000   1.0862   0.02107   0.01511  -0.1545   0.1068   0.5624
   0.500   1.1253   0.02176   0.01568  -0.1514   0.0829   0.5727
   1.000   1.1663   0.02240   0.01624  -0.1487   0.0658   0.5816
   1.500   1.2077   0.02303   0.01680  -0.1460   0.0528   0.5904
   2.000   1.2496   0.02365   0.01737  -0.1434   0.0435   0.5978
   2.500   1.2915   0.02428   0.01797  -0.1408   0.0363   0.6053
   3.000   1.3336   0.02492   0.01858  -0.1383   0.0316   0.6110
   3.500   1.3757   0.02558   0.01924  -0.1357   0.0276   0.6180
   4.000   1.4168   0.02628   0.01993  -0.1331   0.0239   0.6237
   4.500   1.4580   0.02699   0.02064  -0.1305   0.0219   0.6279
   5.000   1.4983   0.02777   0.02144  -0.1278   0.0196   0.6335
   5.500   1.5384   0.02857   0.02226  -0.1251   0.0182   0.6379
   6.000   1.5765   0.02950   0.02319  -0.1221   0.0162   0.6420
   6.500   1.6148   0.03041   0.02415  -0.1192   0.0155   0.6455
   7.000   1.6510   0.03147   0.02524  -0.1161   0.0144   0.6488
   7.500   1.6845   0.03273   0.02655  -0.1126   0.0131   0.6519
   8.000   1.7193   0.03389   0.02777  -0.1095   0.0127   0.6550
   8.500   1.7523   0.03514   0.02907  -0.1061   0.0121   0.6577
   9.000   1.7832   0.03656   0.03054  -0.1026   0.0113   0.6601
   9.500   1.8081   0.03846   0.03253  -0.0983   0.0105   0.6619
  10.000   1.8344   0.04023   0.03439  -0.0945   0.0102   0.6639
  10.500   1.8598   0.04205   0.03631  -0.0906   0.0099   0.6658
  11.000   1.8829   0.04409   0.03844  -0.0866   0.0096   0.6682
  11.500   1.9012   0.04655   0.04099  -0.0823   0.0092   0.6703
  12.000   1.9182   0.04915   0.04369  -0.0780   0.0089   0.6714
  12.500   1.9263   0.05256   0.04724  -0.0732   0.0085   0.6724
  13.000   1.9271   0.05683   0.05169  -0.0682   0.0080   0.6735
  13.500   1.9344   0.06058   0.05559  -0.0641   0.0080   0.6746
  14.000   1.9370   0.06493   0.06008  -0.0602   0.0079   0.6758
  14.500   1.9349   0.07005   0.06537  -0.0567   0.0077   0.6772
  15.000   1.9271   0.07626   0.07176  -0.0541   0.0076   0.6788
  15.500   1.9126   0.08402   0.07970  -0.0530   0.0075   0.6803
  16.000   1.8912   0.09348   0.08939  -0.0538   0.0073   0.6808
  16.500   1.8602   0.10511   0.10126  -0.0571   0.0072   0.6812
  17.000   1.8171   0.11920   0.11563  -0.0633   0.0072   0.6815
  17.500   1.7617   0.13630   0.13303  -0.0732   0.0072   0.6817
  18.000   1.6917   0.15726   0.15432  -0.0876   0.0072   0.6817
  18.500   1.6096   0.18245   0.17988  -0.1072   0.0073   0.6815
  19.000   1.5432   0.20628   0.20399  -0.1271   0.0073   0.6814
  19.500   1.5016   0.22541   0.22332  -0.1436   0.0072   0.6815
  20.000   1.4741   0.24174   0.23981  -0.1579   0.0070   0.6817
  20.500   1.4575   0.25566   0.25384  -0.1702   0.0068   0.6820
  21.000   1.4461   0.26849   0.26676  -0.1816   0.0066   0.6825
  21.500   1.4287   0.28463   0.28304  -0.1959   0.0060   0.6828
  22.500   1.3795   0.35639   0.35495  -0.2461   0.0032   0.6814
  23.000   1.3908   0.35967   0.35825  -0.2503   0.0031   0.6821
  23.500   1.4018   0.36387   0.36247  -0.2549   0.0030   0.6829
  24.000   0.8551   0.34082   0.33970  -0.1534   0.0029   0.6794
  24.500   0.8561   0.34862   0.34751  -0.1555   0.0029   0.6805
  25.000   0.8575   0.35689   0.35580  -0.1576   0.0021   0.6811
