  
       XFOIL         Version 6.99
  
 Calculated polar for: NACA 0012                                       
  
 1 1 Reynolds number fixed          Mach number fixed         
  
 xtrf =   1.000 (top)        1.000 (bottom)  
 Mach =   0.000     Re =     1.521 e 6     Ncrit =   9.000
  
   alpha    CL        CD       CDp       CM     Top_Xtr  Bot_Xtr
  ------ -------- --------- --------- -------- -------- --------
 -15.000  -1.5647   0.03031   0.02562  -0.0097   1.0000   0.0119
 -14.500  -1.5502   0.02762   0.02280  -0.0067   1.0000   0.0123
 -14.000  -1.5307   0.02547   0.02053  -0.0035   1.0000   0.0127
 -13.500  -1.5070   0.02372   0.01866  -0.0002   1.0000   0.0132
 -13.000  -1.4790   0.02233   0.01716   0.0030   1.0000   0.0136
 -12.500  -1.4585   0.02052   0.01522   0.0076   1.0000   0.0144
 -12.000  -1.4298   0.01926   0.01389   0.0116   1.0000   0.0151
 -11.500  -1.3927   0.01825   0.01280   0.0143   1.0000   0.0159
 -11.000  -1.3515   0.01736   0.01183   0.0164   1.0000   0.0166
 -10.500  -1.3121   0.01619   0.01059   0.0188   1.0000   0.0179
 -10.000  -1.2677   0.01537   0.00974   0.0205   1.0000   0.0193
  -9.500  -1.2218   0.01461   0.00892   0.0221   1.0000   0.0205
  -9.000  -1.1762   0.01376   0.00806   0.0237   1.0000   0.0226
  -8.500  -1.1280   0.01314   0.00739   0.0250   1.0000   0.0243
  -8.000  -1.0805   0.01241   0.00667   0.0264   1.0000   0.0274
  -7.500  -1.0319   0.01178   0.00604   0.0277   1.0000   0.0308
  -7.000  -0.9827   0.01123   0.00549   0.0289   1.0000   0.0345
  -6.500  -0.9339   0.01069   0.00498   0.0303   1.0000   0.0397
  -6.000  -0.8860   0.01016   0.00450   0.0319   1.0000   0.0469
  -5.500  -0.8390   0.00964   0.00405   0.0337   1.0000   0.0577
  -4.500  -0.7125   0.00853   0.00318   0.0302   0.9853   0.0968
  -4.000  -0.6506   0.00802   0.00276   0.0289   0.9237   0.1296
  -3.500  -0.6056   0.00801   0.00238   0.0314   0.7533   0.1669
  -3.000  -0.5530   0.00763   0.00210   0.0320   0.7273   0.2137
  -2.500  -0.4998   0.00726   0.00187   0.0325   0.7128   0.2660
  -2.000  -0.4462   0.00686   0.00167   0.0330   0.7006   0.3242
  -1.500  -0.3918   0.00648   0.00149   0.0333   0.6874   0.3826
  -1.000  -0.3374   0.00612   0.00132   0.0337   0.6707   0.4450
  -0.500  -0.2829   0.00578   0.00117   0.0341   0.6495   0.5107
   0.500  -0.1779   0.00493   0.00090   0.0356   0.5914   0.7009
   1.000  -0.1226   0.00491   0.00093   0.0360   0.5557   0.7692
   1.500  -0.0657   0.00502   0.00095   0.0360   0.5171   0.7901
   2.000  -0.0088   0.00516   0.00099   0.0360   0.4756   0.8049
   2.500   0.0480   0.00533   0.00106   0.0360   0.4317   0.8172
   3.000   0.1048   0.00554   0.00114   0.0359   0.3854   0.8275
   3.500   0.1615   0.00579   0.00125   0.0358   0.3384   0.8370
   4.000   0.2179   0.00607   0.00139   0.0357   0.2899   0.8457
   4.500   0.2741   0.00640   0.00157   0.0357   0.2423   0.8544
   5.000   0.3298   0.00675   0.00179   0.0357   0.1968   0.8630
   5.500   0.3852   0.00716   0.00204   0.0357   0.1553   0.8722
   6.000   0.4401   0.00755   0.00234   0.0358   0.1209   0.8826
   6.500   0.4945   0.00797   0.00267   0.0361   0.0936   0.8952
   7.500   0.6025   0.00883   0.00343   0.0366   0.0589   0.9190
   8.000   0.6558   0.00929   0.00388   0.0370   0.0479   0.9311
   8.500   0.7083   0.00975   0.00435   0.0376   0.0408   0.9446
   9.000   0.7599   0.01027   0.00488   0.0383   0.0349   0.9590
   9.500   0.8127   0.01077   0.00541   0.0387   0.0312   0.9723
  10.000   0.8681   0.01136   0.00603   0.0385   0.0279   0.9832
  10.500   0.9293   0.01212   0.00680   0.0367   0.0247   0.9887
  11.000   0.9898   0.01280   0.00750   0.0351   0.0227   0.9938
  11.500   1.0524   0.01372   0.00847   0.0327   0.0206   0.9960
  12.000   1.1144   0.01450   0.00930   0.0305   0.0191   0.9988
  12.500   1.1585   0.01563   0.01048   0.0318   0.0175   1.0000
  13.000   1.1960   0.01636   0.01128   0.0346   0.0169   1.0000
  13.500   1.2347   0.01725   0.01224   0.0370   0.0160   1.0000
  14.000   1.2729   0.01839   0.01343   0.0391   0.0152   1.0000
  14.500   1.3053   0.02003   0.01521   0.0416   0.0143   1.0000
  15.000   1.3422   0.02120   0.01647   0.0434   0.0139   1.0000
  15.500   1.3713   0.02263   0.01801   0.0461   0.0133   1.0000
  16.000   1.3909   0.02448   0.01998   0.0493   0.0129   1.0000
  16.500   1.4046   0.02726   0.02290   0.0511   0.0125   1.0000
  17.000   1.4072   0.03229   0.02812   0.0499   0.0120   1.0000
  17.500   1.3892   0.04075   0.03685   0.0459   0.0117   1.0000
  18.000   1.3793   0.04874   0.04506   0.0418   0.0116   1.0000
  18.500   1.3517   0.05960   0.05617   0.0361   0.0115   1.0000
  19.000   1.3037   0.07387   0.07071   0.0287   0.0115   1.0000
  19.500   1.2423   0.09110   0.08821   0.0198   0.0115   1.0000
  20.000   1.1801   0.10924   0.10659   0.0104   0.0116   1.0000
  20.500   1.1284   0.12635   0.12391   0.0014   0.0115   1.0000
  21.000   1.0903   0.14165   0.13939  -0.0069   0.0115   1.0000
  21.500   1.0585   0.15653   0.15443  -0.0155   0.0114   1.0000
  22.000   1.0329   0.17075   0.16880  -0.0240   0.0112   1.0000
  22.500   1.0023   0.18729   0.18552  -0.0342   0.0110   1.0000
  23.000   0.8373   0.26448   0.26301  -0.0701   0.0085   1.0000
  23.500   0.8537   0.27056   0.26910  -0.0747   0.0078   1.0000
  24.000   0.8704   0.27575   0.27430  -0.0790   0.0075   1.0000
  24.500   0.8874   0.28022   0.27877  -0.0831   0.0073   1.0000
  25.000   0.9014   0.28739   0.28595  -0.0878   0.0072   1.0000
