  
       XFOIL         Version 6.99
  
 Calculated polar for: NACA 0012                                       
  
 1 1 Reynolds number fixed          Mach number fixed         
  
 xtrf =   1.000 (top)        1.000 (bottom)  
 Mach =   0.000     Re =     2.332 e 6     Ncrit =   9.000
  
   alpha    CL        CD       CDp       CM     Top_Xtr  Bot_Xtr
  ------ -------- --------- --------- -------- -------- --------
 -15.000  -1.2486   0.01626   0.01166  -0.0589   0.9808   0.0131
 -14.500  -1.2035   0.01533   0.01064  -0.0580   0.9517   0.0139
 -14.000  -1.1585   0.01462   0.00979  -0.0568   0.9201   0.0146
 -13.500  -1.1104   0.01398   0.00900  -0.0561   0.8947   0.0151
 -13.000  -1.0626   0.01311   0.00802  -0.0554   0.8757   0.0166
 -12.500  -1.0117   0.01249   0.00732  -0.0551   0.8628   0.0177
 -12.000  -0.9600   0.01188   0.00663  -0.0549   0.8529   0.0190
 -11.500  -0.9077   0.01128   0.00600  -0.0548   0.8457   0.0210
 -11.000  -0.8544   0.01078   0.00543  -0.0547   0.8389   0.0228
 -10.500  -0.8005   0.01024   0.00489  -0.0548   0.8358   0.0254
 -10.000  -0.7461   0.00975   0.00439  -0.0548   0.8325   0.0287
  -9.500  -0.6911   0.00932   0.00395  -0.0550   0.8296   0.0324
  -9.000  -0.6358   0.00892   0.00355  -0.0551   0.8269   0.0369
  -8.500  -0.5802   0.00851   0.00316  -0.0553   0.8242   0.0441
  -8.000  -0.5244   0.00813   0.00281  -0.0555   0.8218   0.0534
  -7.500  -0.4681   0.00773   0.00249  -0.0557   0.8209   0.0661
  -7.000  -0.4115   0.00736   0.00220  -0.0560   0.8194   0.0829
  -6.500  -0.3550   0.00700   0.00193  -0.0562   0.8150   0.1040
  -5.500  -0.2420   0.00632   0.00148  -0.0567   0.8049   0.1690
  -5.000  -0.1848   0.00598   0.00130  -0.0570   0.8025   0.2081
  -4.500  -0.1275   0.00566   0.00114  -0.0573   0.7989   0.2517
  -4.000  -0.0700   0.00541   0.00102  -0.0576   0.7944   0.2944
  -3.500  -0.0126   0.00520   0.00093  -0.0579   0.7880   0.3379
  -3.000   0.0454   0.00497   0.00086  -0.0582   0.7837   0.3799
  -2.500   0.1031   0.00481   0.00080  -0.0585   0.7754   0.4195
  -2.000   0.1611   0.00467   0.00076  -0.0587   0.7656   0.4566
  -1.500   0.2187   0.00457   0.00074  -0.0589   0.7484   0.4921
  -1.000   0.2692   0.00509   0.00084  -0.0578   0.5987   0.5243
  -0.500   0.3223   0.00546   0.00099  -0.0572   0.5095   0.5548
  -0.000   0.3760   0.00579   0.00113  -0.0567   0.4374   0.5817
   0.500   0.4299   0.00611   0.00129  -0.0563   0.3750   0.6066
   1.000   0.4836   0.00648   0.00148  -0.0558   0.3151   0.6274
   1.500   0.5372   0.00687   0.00170  -0.0552   0.2586   0.6453
   2.000   0.5906   0.00731   0.00196  -0.0547   0.2071   0.6602
   2.500   0.6439   0.00776   0.00224  -0.0541   0.1626   0.6725
   3.000   0.6970   0.00824   0.00256  -0.0535   0.1246   0.6814
   3.500   0.7503   0.00872   0.00288  -0.0530   0.0958   0.6888
   4.000   0.8032   0.00918   0.00324  -0.0523   0.0736   0.6952
   4.500   0.8563   0.00961   0.00359  -0.0517   0.0596   0.7008
   5.000   0.9086   0.01004   0.00396  -0.0510   0.0477   0.7063
   5.500   0.9608   0.01048   0.00437  -0.0502   0.0394   0.7117
   6.000   1.0124   0.01092   0.00480  -0.0494   0.0334   0.7183
   6.500   1.0639   0.01136   0.00525  -0.0486   0.0295   0.7255
   7.500   1.1637   0.01184   0.00637  -0.0463   0.0233   0.9999
   8.000   1.2127   0.01242   0.00694  -0.0451   0.0212   0.9999
   8.500   1.2607   0.01306   0.00760  -0.0437   0.0194   0.9999
   9.000   1.3080   0.01370   0.00824  -0.0423   0.0179   0.9999
   9.500   1.3530   0.01450   0.00906  -0.0405   0.0163   0.9999
  10.000   1.3983   0.01517   0.00977  -0.0387   0.0155   0.9999
  10.500   1.4410   0.01598   0.01060  -0.0366   0.0145   0.9999
  11.000   1.4788   0.01703   0.01171  -0.0338   0.0134   0.9999
  11.500   1.5152   0.01784   0.01258  -0.0306   0.0130   0.9999
  12.000   1.5493   0.01879   0.01359  -0.0273   0.0125   0.9999
  12.500   1.5807   0.01992   0.01477  -0.0238   0.0118   0.9999
  13.000   1.6063   0.02146   0.01639  -0.0198   0.0111   0.9999
  13.500   1.6313   0.02306   0.01810  -0.0161   0.0107   0.9999
  14.000   1.6569   0.02465   0.01979  -0.0127   0.0105   0.9999
  14.500   1.6793   0.02653   0.02177  -0.0094   0.0102   0.9999
  15.000   1.6979   0.02875   0.02410  -0.0061   0.0099   0.9999
  15.500   1.7128   0.03139   0.02685  -0.0029   0.0096   0.9999
  16.000   1.7220   0.03463   0.03022   0.0001   0.0093   0.9999
  16.500   1.7222   0.03889   0.03463   0.0028   0.0090   0.9999
  17.000   1.7098   0.04487   0.04082   0.0046   0.0087   0.9999
  17.500   1.6903   0.05300   0.04919   0.0038   0.0085   0.9999
  18.000   1.6735   0.06197   0.05837   0.0010   0.0085   0.9999
  18.500   1.6394   0.07429   0.07095  -0.0043   0.0084   0.9999
  19.000   1.5752   0.09197   0.08895  -0.0128   0.0084   0.9999
  19.500   1.4718   0.11734   0.11471  -0.0261   0.0085   0.9999
  20.000   1.3657   0.14508   0.14281  -0.0422   0.0085   0.9999
  20.500   1.2994   0.16692   0.16490  -0.0560   0.0086   0.9999
  21.000   1.2538   0.18580   0.18398  -0.0689   0.0085   0.9999
  21.500   1.2330   0.19961   0.19792  -0.0786   0.0084   0.9999
  22.000   1.2177   0.21268   0.21110  -0.0881   0.0083   0.9999
  22.500   1.2049   0.22567   0.22421  -0.0977   0.0082   0.9999
  23.000   1.1881   0.24064   0.23931  -0.1088   0.0078   0.9999
  23.500   1.1602   0.26107   0.25990  -0.1234   0.0073   0.9999
