  
       XFOIL         Version 6.99
  
 Calculated polar for: NACA 0012                                       
  
 1 1 Reynolds number fixed          Mach number fixed         
  
 xtrf =   1.000 (top)        1.000 (bottom)  
 Mach =   0.000     Re =     1.521 e 6     Ncrit =   9.000
  
   alpha    CL        CD       CDp       CM     Top_Xtr  Bot_Xtr
  ------ -------- --------- --------- -------- -------- --------
 -15.000  -0.8555   0.01538   0.00997  -0.1141   0.7744   0.0190
 -14.500  -0.8037   0.01449   0.00903  -0.1148   0.7752   0.0204
 -14.000  -0.7503   0.01382   0.00829  -0.1154   0.7759   0.0216
 -13.500  -0.6977   0.01292   0.00735  -0.1160   0.7766   0.0238
 -13.000  -0.6430   0.01238   0.00676  -0.1166   0.7773   0.0257
 -12.500  -0.5887   0.01169   0.00605  -0.1172   0.7780   0.0290
 -12.000  -0.5333   0.01117   0.00550  -0.1178   0.7787   0.0322
 -11.500  -0.4775   0.01072   0.00504  -0.1184   0.7794   0.0362
 -11.000  -0.4215   0.01023   0.00457  -0.1190   0.7801   0.0422
 -10.500  -0.3651   0.00982   0.00418  -0.1196   0.7809   0.0497
 -10.000  -0.3085   0.00943   0.00383  -0.1203   0.7816   0.0601
  -9.500  -0.2517   0.00904   0.00352  -0.1209   0.7824   0.0756
  -9.000  -0.1945   0.00872   0.00327  -0.1215   0.7832   0.0940
  -8.500  -0.1373   0.00839   0.00305  -0.1222   0.7839   0.1193
  -8.000  -0.0799   0.00810   0.00288  -0.1228   0.7846   0.1507
  -7.500  -0.0224   0.00783   0.00276  -0.1234   0.7853   0.1880
  -7.000   0.0353   0.00763   0.00270  -0.1240   0.7859   0.2280
  -6.500   0.0931   0.00746   0.00266  -0.1246   0.7862   0.2669
  -6.000   0.1516   0.00704   0.00236  -0.1251   0.7840   0.3073
  -5.500   0.2098   0.00672   0.00214  -0.1255   0.7806   0.3440
  -5.000   0.2681   0.00649   0.00200  -0.1259   0.7777   0.3794
  -4.500   0.3264   0.00630   0.00188  -0.1263   0.7747   0.4122
  -4.000   0.3844   0.00624   0.00189  -0.1266   0.7709   0.4425
  -3.500   0.4425   0.00607   0.00182  -0.1269   0.7679   0.4701
  -3.000   0.5006   0.00585   0.00169  -0.1271   0.7631   0.4959
  -2.500   0.5585   0.00569   0.00157  -0.1272   0.7563   0.5191
  -2.000   0.6161   0.00553   0.00151  -0.1272   0.7473   0.5400
  -1.500   0.6732   0.00539   0.00143  -0.1272   0.7238   0.5594
  -1.000   0.6991   0.00712   0.00219  -0.1212   0.4727   0.5744
  -0.500   0.7410   0.00788   0.00261  -0.1184   0.3817   0.5893
  -0.000   0.7833   0.00858   0.00303  -0.1156   0.3068   0.6032
   0.500   0.8258   0.00925   0.00346  -0.1129   0.2434   0.6151
   1.000   0.8680   0.00995   0.00392  -0.1102   0.1879   0.6259
   1.500   0.9108   0.01063   0.00440  -0.1075   0.1432   0.6358
   2.000   0.9506   0.01126   0.00488  -0.1042   0.1094   0.6440
   2.500   0.9934   0.01192   0.00541  -0.1016   0.0846   0.6518
   3.000   1.0382   0.01256   0.00596  -0.0994   0.0668   0.6583
   3.500   1.0827   0.01324   0.00657  -0.0972   0.0536   0.6640
   4.000   1.1273   0.01394   0.00720  -0.0951   0.0437   0.6696
   4.500   1.1717   0.01464   0.00788  -0.0929   0.0372   0.6735
   5.000   1.2158   0.01534   0.00857  -0.0907   0.0329   0.6780
   5.500   1.2594   0.01607   0.00931  -0.0885   0.0291   0.6821
   6.000   1.3013   0.01691   0.01016  -0.0861   0.0258   0.6852
   6.500   1.3434   0.01769   0.01097  -0.0837   0.0237   0.6891
   7.000   1.3834   0.01864   0.01194  -0.0811   0.0214   0.6924
   7.500   1.4234   0.01950   0.01286  -0.0785   0.0199   0.6957
   8.000   1.4591   0.02074   0.01413  -0.0754   0.0181   0.6993
   8.500   1.4971   0.02167   0.01515  -0.0727   0.0173   0.7022
   9.000   1.5326   0.02277   0.01633  -0.0697   0.0163   0.7055
   9.500   1.5633   0.02425   0.01787  -0.0662   0.0151   0.7083
  10.000   1.5940   0.02564   0.01939  -0.0628   0.0145   0.7113
  10.500   1.6241   0.02709   0.02094  -0.0595   0.0139   0.7140
  11.000   1.6512   0.02873   0.02269  -0.0560   0.0133   0.7170
  11.500   1.6738   0.03072   0.02479  -0.0521   0.0127   0.7195
  12.000   1.6833   0.03374   0.02799  -0.0471   0.0120   0.7221
  13.000   1.7183   0.03863   0.03319  -0.0396   0.0115   0.7277
  13.500   1.7300   0.04168   0.03640  -0.0358   0.0111   0.7311
  14.000   1.7389   0.04515   0.04004  -0.0324   0.0108   0.7350
  14.500   1.7425   0.04930   0.04437  -0.0292   0.0105   0.7424
  15.000   1.7401   0.05447   0.04986  -0.0267   0.0102   0.8191
  15.500   1.7221   0.06145   0.05734  -0.0247   0.0099   0.9998
  16.000   1.6914   0.07247   0.06865  -0.0267   0.0097   0.9998
  16.500   1.6451   0.08734   0.08384  -0.0324   0.0096   0.9998
  17.000   1.5889   0.10471   0.10154  -0.0406   0.0096   0.9998
  17.500   1.5272   0.12359   0.12073  -0.0505   0.0096   0.9998
  18.000   1.4677   0.14292   0.14035  -0.0618   0.0096   0.9998
  18.500   1.4148   0.16205   0.15972  -0.0742   0.0096   0.9998
  19.000   1.3714   0.18003   0.17792  -0.0867   0.0095   0.9998
  19.500   1.3468   0.19461   0.19267  -0.0972   0.0094   0.9998
  20.000   1.3258   0.20899   0.20721  -0.1080   0.0093   0.9998
  20.500   1.3055   0.22400   0.22239  -0.1195   0.0092   0.9998
  22.000   0.7585   0.27970   0.27820  -0.1090   0.0067   0.7426
  22.500   0.7635   0.28567   0.28431  -0.1115   0.0060   0.7895
  23.000   0.7673   0.28977   0.28877  -0.1129   0.0057   0.9998
  23.500   0.7731   0.29420   0.29321  -0.1150   0.0056   0.9998
  24.000   0.7763   0.30082   0.29983  -0.1171   0.0054   0.9998
  24.500   0.7775   0.31084   0.30986  -0.1200   0.0048   0.9998
  25.000   0.7817   0.31660   0.31564  -0.1223   0.0043   0.9998
