  
       XFOIL         Version 6.99
  
 Calculated polar for: NACA 0012                                       
  
 1 1 Reynolds number fixed          Mach number fixed         
  
 xtrf =   1.000 (top)        1.000 (bottom)  
 Mach =   0.000     Re =     2.332 e 6     Ncrit =   9.000
  
   alpha    CL        CD       CDp       CM     Top_Xtr  Bot_Xtr
  ------ -------- --------- --------- -------- -------- --------
 -15.000  -0.5175   0.01309   0.00806  -0.1648   0.7422   0.0222
 -14.500  -0.4613   0.01251   0.00748  -0.1660   0.7426   0.0245
 -14.000  -0.4048   0.01202   0.00696  -0.1671   0.7430   0.0270
 -13.500  -0.3482   0.01162   0.00656  -0.1681   0.7436   0.0298
 -13.000  -0.2916   0.01124   0.00620  -0.1690   0.7442   0.0344
 -12.500  -0.2350   0.01096   0.00595  -0.1699   0.7450   0.0394
 -12.000  -0.1783   0.01073   0.00576  -0.1708   0.7458   0.0463
 -11.500  -0.1215   0.01055   0.00563  -0.1716   0.7466   0.0551
 -11.000  -0.0647   0.01039   0.00553  -0.1723   0.7474   0.0670
 -10.500  -0.0080   0.01026   0.00548  -0.1730   0.7482   0.0823
 -10.000   0.0487   0.01013   0.00544  -0.1737   0.7490   0.1032
  -9.500   0.1054   0.01003   0.00545  -0.1743   0.7497   0.1283
  -9.000   0.1621   0.00997   0.00551  -0.1749   0.7505   0.1575
  -8.500   0.2186   0.00995   0.00561  -0.1753   0.7512   0.1898
  -8.000   0.2748   0.01001   0.00578  -0.1757   0.7519   0.2230
  -7.500   0.3322   0.00991   0.00581  -0.1763   0.7520   0.2582
  -7.000   0.3974   0.00876   0.00467  -0.1778   0.7468   0.2930
  -6.500   0.4580   0.00829   0.00419  -0.1786   0.7417   0.3251
  -6.000   0.5136   0.00845   0.00444  -0.1786   0.7397   0.3521
  -5.500   0.5765   0.00758   0.00363  -0.1798   0.7378   0.3824
  -5.000   0.6376   0.00699   0.00307  -0.1806   0.7359   0.4077
  -4.500   0.7005   0.00639   0.00249  -0.1818   0.7397   0.4335
  -4.000   0.7600   0.00591   0.00207  -0.1822   0.7370   0.4541
  -3.500   0.8184   0.00552   0.00170  -0.1825   0.7295   0.4745
  -3.000   0.8509   0.00664   0.00226  -0.1777   0.5519   0.4910
  -2.500   0.8718   0.00800   0.00313  -0.1707   0.4167   0.5060
  -2.000   0.8875   0.00896   0.00385  -0.1625   0.3437   0.5204
  -1.500   0.9073   0.01023   0.00491  -0.1558   0.2823   0.5335
  -1.000   0.9338   0.01155   0.00605  -0.1506   0.2310   0.5457
  -0.500   0.9640   0.01282   0.00713  -0.1463   0.1803   0.5587
  -0.000   0.9980   0.01391   0.00804  -0.1425   0.1377   0.5702
   0.500   1.0364   0.01478   0.00878  -0.1395   0.1077   0.5799
   1.000   1.0760   0.01560   0.00949  -0.1366   0.0832   0.5909
   1.500   1.1177   0.01631   0.01012  -0.1340   0.0663   0.5994
   2.000   1.1596   0.01702   0.01076  -0.1314   0.0534   0.6085
   2.500   1.2020   0.01770   0.01138  -0.1290   0.0435   0.6154
   3.000   1.2447   0.01839   0.01205  -0.1266   0.0366   0.6230
   3.500   1.2872   0.01909   0.01272  -0.1242   0.0320   0.6291
   4.000   1.3295   0.01980   0.01343  -0.1218   0.0280   0.6350
   4.500   1.3713   0.02056   0.01418  -0.1193   0.0245   0.6404
   5.000   1.4129   0.02132   0.01494  -0.1168   0.0222   0.6452
   5.500   1.4538   0.02212   0.01577  -0.1142   0.0201   0.6495
   6.000   1.4940   0.02297   0.01662  -0.1116   0.0184   0.6534
   6.500   1.5329   0.02391   0.01759  -0.1088   0.0168   0.6572
   7.000   1.5712   0.02485   0.01857  -0.1060   0.0158   0.6604
   7.500   1.6075   0.02593   0.01967  -0.1029   0.0147   0.6633
   8.000   1.6423   0.02713   0.02093  -0.0997   0.0136   0.6657
   8.500   1.6778   0.02824   0.02210  -0.0966   0.0131   0.6683
   9.000   1.7104   0.02953   0.02344  -0.0933   0.0123   0.6709
   9.500   1.7396   0.03108   0.02504  -0.0896   0.0115   0.6733
  10.000   1.7671   0.03277   0.02682  -0.0857   0.0109   0.6749
  10.500   1.7944   0.03441   0.02856  -0.0820   0.0107   0.6764
  11.000   1.8195   0.03623   0.03047  -0.0782   0.0103   0.6780
  11.500   1.8425   0.03825   0.03257  -0.0743   0.0099   0.6797
  12.000   1.8612   0.04062   0.03503  -0.0701   0.0095   0.6817
  12.500   1.8749   0.04344   0.03796  -0.0655   0.0090   0.6836
  13.000   1.8802   0.04709   0.04179  -0.0606   0.0086   0.6845
  13.500   1.8918   0.05026   0.04508  -0.0567   0.0085   0.6855
  14.000   1.9015   0.05369   0.04865  -0.0529   0.0083   0.6868
  14.500   1.9065   0.05777   0.05287  -0.0492   0.0082   0.6882
  15.000   1.9056   0.06268   0.05794  -0.0459   0.0080   0.6894
  15.500   1.8980   0.06870   0.06413  -0.0433   0.0078   0.6907
  16.000   1.8840   0.07636   0.07198  -0.0423   0.0077   0.6919
  16.500   1.8616   0.08609   0.08193  -0.0435   0.0076   0.6927
  17.000   1.8271   0.09833   0.09442  -0.0472   0.0075   0.6932
  17.500   1.7783   0.11357   0.10996  -0.0540   0.0074   0.6935
  18.000   1.7138   0.13231   0.12901  -0.0645   0.0074   0.6937
  18.500   1.6359   0.15497   0.15203  -0.0796   0.0075   0.6936
  19.000   1.5501   0.18106   0.17847  -0.0993   0.0076   0.6933
  19.500   1.4853   0.20471   0.20239  -0.1184   0.0076   0.6932
  20.000   1.4477   0.22313   0.22098  -0.1337   0.0075   0.6933
  20.500   1.4241   0.23849   0.23648  -0.1467   0.0073   0.6937
  21.000   1.4095   0.25191   0.24999  -0.1582   0.0071   0.6941
  21.500   1.3982   0.26486   0.26304  -0.1694   0.0066   0.6945
  23.500   0.8292   0.31869   0.31745  -0.1391   0.0034   0.6895
  24.000   0.8302   0.32624   0.32502  -0.1413   0.0033   0.6906
  24.500   0.8321   0.33359   0.33238  -0.1434   0.0032   0.6917
  25.000   0.8336   0.34256   0.34135  -0.1457   0.0025   0.6926
