  
       XFOIL         Version 6.99
  
 Calculated polar for: NACA 0012                                       
  
 1 1 Reynolds number fixed          Mach number fixed         
  
 xtrf =   1.000 (top)        1.000 (bottom)  
 Mach =   0.000     Re =     1.521 e 6     Ncrit =   9.000
  
   alpha    CL        CD       CDp       CM     Top_Xtr  Bot_Xtr
  ------ -------- --------- --------- -------- -------- --------
 -15.000  -1.7569   0.06337   0.05868   0.0332   0.7187   0.0099
 -14.500  -1.7639   0.05723   0.05235   0.0353   0.7171   0.0102
 -14.000  -1.7649   0.05230   0.04724   0.0383   0.7153   0.0104
 -13.500  -1.7612   0.04809   0.04286   0.0418   0.7136   0.0107
 -13.000  -1.7532   0.04449   0.03910   0.0456   0.7119   0.0110
 -12.500  -1.7414   0.04141   0.03585   0.0495   0.7098   0.0113
 -12.000  -1.7245   0.03883   0.03312   0.0533   0.7076   0.0115
 -11.500  -1.7177   0.03552   0.02962   0.0584   0.7057   0.0121
 -11.000  -1.6990   0.03319   0.02718   0.0626   0.7034   0.0127
 -10.500  -1.6754   0.03128   0.02517   0.0664   0.7011   0.0132
 -10.000  -1.6482   0.02962   0.02340   0.0700   0.6984   0.0138
  -9.500  -1.6181   0.02817   0.02185   0.0734   0.6958   0.0143
  -9.000  -1.5913   0.02638   0.01996   0.0774   0.6934   0.0154
  -8.500  -1.5585   0.02504   0.01857   0.0806   0.6902   0.0164
  -8.000  -1.5228   0.02391   0.01736   0.0836   0.6877   0.0172
  -7.500  -1.4881   0.02265   0.01602   0.0867   0.6849   0.0186
  -7.000  -1.4505   0.02157   0.01493   0.0896   0.6814   0.0201
  -6.500  -1.4106   0.02068   0.01397   0.0921   0.6785   0.0214
  -6.000  -1.3720   0.01962   0.01290   0.0949   0.6761   0.0240
  -5.500  -1.3304   0.01879   0.01203   0.0974   0.6719   0.0260
  -5.000  -1.2891   0.01790   0.01115   0.0999   0.6680   0.0295
  -4.500  -1.2468   0.01708   0.01033   0.1022   0.6645   0.0337
  -4.000  -1.2038   0.01632   0.00958   0.1045   0.6598   0.0388
  -3.500  -1.1604   0.01557   0.00887   0.1068   0.6544   0.0457
  -3.000  -1.1171   0.01483   0.00817   0.1091   0.6490   0.0557
  -2.500  -1.0739   0.01410   0.00752   0.1114   0.6424   0.0690
  -2.000  -1.0312   0.01335   0.00686   0.1138   0.6351   0.0884
  -1.500  -0.9896   0.01258   0.00623   0.1165   0.6272   0.1157
  -1.000  -0.9493   0.01178   0.00558   0.1193   0.6179   0.1507
  -0.500  -0.9118   0.01091   0.00492   0.1228   0.6082   0.1965
  -0.000  -0.8767   0.01005   0.00426   0.1267   0.5974   0.2500
   0.500  -0.8504   0.00922   0.00368   0.1327   0.5856   0.3114
   1.000  -0.8172   0.00841   0.00314   0.1373   0.5730   0.3856
   1.500  -0.7841   0.00746   0.00257   0.1419   0.5592   0.4823
   2.000  -0.7647   0.00570   0.00171   0.1492   0.5451   0.7299
   2.500  -0.7074   0.00589   0.00183   0.1492   0.5269   0.7437
   3.000  -0.6497   0.00619   0.00207   0.1492   0.5073   0.7519
   3.500  -0.5921   0.00633   0.00214   0.1491   0.4857   0.7573
   4.500  -0.4749   0.00688   0.00259   0.1486   0.4358   0.7667
   5.000  -0.4160   0.00721   0.00283   0.1482   0.4073   0.7691
   5.500  -0.3584   0.00728   0.00280   0.1479   0.3762   0.7714
   6.000  -0.3004   0.00737   0.00284   0.1475   0.3439   0.7752
   6.500  -0.2414   0.00781   0.00324   0.1470   0.3082   0.7800
   7.000  -0.1833   0.00799   0.00330   0.1465   0.2710   0.7803
   7.500  -0.1255   0.00810   0.00328   0.1458   0.2338   0.7792
   8.000  -0.0678   0.00826   0.00330   0.1452   0.1957   0.7781
   8.500  -0.0102   0.00848   0.00337   0.1445   0.1587   0.7770
   9.500   0.1047   0.00903   0.00367   0.1430   0.1004   0.7749
  10.000   0.1621   0.00935   0.00390   0.1423   0.0804   0.7739
  10.500   0.2193   0.00975   0.00422   0.1415   0.0639   0.7730
  11.000   0.2766   0.01018   0.00461   0.1407   0.0527   0.7720
  11.500   0.3337   0.01066   0.00508   0.1399   0.0446   0.7711
  12.000   0.3906   0.01122   0.00564   0.1391   0.0381   0.7702
  12.500   0.4467   0.01176   0.00617   0.1383   0.0331   0.7697
  13.000   0.5025   0.01214   0.00659   0.1376   0.0301   0.7694
  13.500   0.5574   0.01270   0.00718   0.1368   0.0269   0.7690
  14.000   0.6122   0.01325   0.00776   0.1360   0.0246   0.7686
  14.500   0.6660   0.01400   0.00858   0.1351   0.0226   0.7682
  15.000   0.7198   0.01467   0.00930   0.1342   0.0211   0.7678
  15.500   0.7713   0.01578   0.01049   0.1332   0.0192   0.7673
  16.000   0.8238   0.01658   0.01137   0.1322   0.0184   0.7668
  16.500   0.8749   0.01761   0.01249   0.1309   0.0173   0.7663
  17.000   0.9220   0.01945   0.01445   0.1289   0.0161   0.7658
  17.500   0.9699   0.02127   0.01642   0.1262   0.0155   0.7653
  18.000   1.0161   0.02362   0.01891   0.1222   0.0149   0.7648
  18.500   1.0544   0.02724   0.02269   0.1161   0.0143   0.7643
  19.000   1.0629   0.03313   0.02872   0.1096   0.0139   0.7638
  19.500   1.0542   0.04087   0.03662   0.1036   0.0136   0.7633
  20.000   1.0277   0.05096   0.04690   0.0968   0.0134   0.7628
  20.500   0.9889   0.06322   0.05935   0.0891   0.0132   0.7624
  21.000   0.9441   0.07689   0.07322   0.0811   0.0132   0.7620
  21.500   0.8996   0.09102   0.08751   0.0732   0.0131   0.7616
  22.000   0.8589   0.10509   0.10175   0.0656   0.0129   0.7612
  22.500   0.8304   0.11770   0.11449   0.0589   0.0128   0.7609
  23.000   0.8049   0.13024   0.12716   0.0522   0.0127   0.7606
  23.500   0.7799   0.14329   0.14034   0.0452   0.0126   0.7603
  24.000   0.7410   0.16015   0.15737   0.0365   0.0123   0.7600
  25.000   0.5832   0.23456   0.23194   0.0090   0.0092   0.7598
