  
       XFOIL         Version 6.99
  
 Calculated polar for: NACA 0012                                       
  
 1 1 Reynolds number fixed          Mach number fixed         
  
 xtrf =   1.000 (top)        1.000 (bottom)  
 Mach =   0.000     Re =     2.332 e 6     Ncrit =   9.000
  
   alpha    CL        CD       CDp       CM     Top_Xtr  Bot_Xtr
  ------ -------- --------- --------- -------- -------- --------
 -15.000  -1.7936   0.03848   0.03396   0.0227   0.9999   0.0091
 -14.500  -1.7857   0.03578   0.03082   0.0270   0.8320   0.0093
 -14.000  -1.7699   0.03329   0.02802   0.0304   0.7337   0.0095
 -13.500  -1.7515   0.03102   0.02562   0.0340   0.7291   0.0097
 -13.000  -1.7319   0.02888   0.02334   0.0378   0.7247   0.0100
 -12.500  -1.7147   0.02657   0.02090   0.0421   0.7218   0.0106
 -12.000  -1.6895   0.02489   0.01915   0.0458   0.7194   0.0112
 -11.500  -1.6609   0.02344   0.01761   0.0492   0.7167   0.0116
 -11.000  -1.6297   0.02219   0.01626   0.0525   0.7140   0.0121
 -10.500  -1.5961   0.02109   0.01509   0.0556   0.7112   0.0124
 -10.000  -1.5654   0.01972   0.01363   0.0593   0.7088   0.0134
  -9.500  -1.5296   0.01873   0.01258   0.0623   0.7061   0.0143
  -9.000  -1.4911   0.01791   0.01169   0.0650   0.7034   0.0150
  -8.500  -1.4530   0.01698   0.01072   0.0679   0.7007   0.0162
  -8.000  -1.4130   0.01617   0.00989   0.0706   0.6976   0.0175
  -7.500  -1.3706   0.01551   0.00919   0.0730   0.6951   0.0184
  -7.000  -1.3290   0.01472   0.00838   0.0755   0.6918   0.0206
  -6.500  -1.2854   0.01412   0.00777   0.0779   0.6887   0.0222
  -6.000  -1.2443   0.01349   0.00714   0.0807   0.6859   0.0252
  -5.500  -1.1985   0.01292   0.00657   0.0827   0.6820   0.0281
  -5.000  -1.1510   0.01237   0.00604   0.0844   0.6779   0.0316
  -4.500  -1.1031   0.01182   0.00552   0.0860   0.6737   0.0372
  -4.000  -1.0543   0.01130   0.00504   0.0875   0.6681   0.0440
  -3.500  -1.0052   0.01078   0.00457   0.0889   0.6618   0.0544
  -3.000  -0.9557   0.01027   0.00415   0.0903   0.6548   0.0680
  -2.500  -0.9058   0.00978   0.00374   0.0916   0.6462   0.0867
  -2.000  -0.8560   0.00927   0.00336   0.0929   0.6367   0.1125
  -1.500  -0.8067   0.00874   0.00298   0.0943   0.6260   0.1484
  -1.000  -0.7573   0.00823   0.00263   0.0956   0.6128   0.1921
  -0.500  -0.7080   0.00771   0.00231   0.0970   0.5981   0.2452
  -0.000  -0.6584   0.00722   0.00203   0.0983   0.5819   0.3032
   0.500  -0.6089   0.00673   0.00175   0.0997   0.5635   0.3701
   1.000  -0.5595   0.00622   0.00150   0.1010   0.5438   0.4471
   1.500  -0.5112   0.00560   0.00122   0.1026   0.5222   0.5502
   2.000  -0.4668   0.00469   0.00089   0.1049   0.4990   0.7385
   2.500  -0.4089   0.00479   0.00093   0.1047   0.4717   0.7507
   3.500  -0.2925   0.00505   0.00100   0.1040   0.4101   0.7618
   4.000  -0.2341   0.00522   0.00108   0.1037   0.3761   0.7653
   4.500  -0.1757   0.00542   0.00116   0.1032   0.3411   0.7676
   5.000  -0.1173   0.00565   0.00126   0.1028   0.3036   0.7692
   5.500  -0.0590   0.00592   0.00139   0.1023   0.2633   0.7702
   6.000  -0.0012   0.00611   0.00146   0.1018   0.2240   0.7732
   6.500   0.0564   0.00637   0.00162   0.1014   0.1868   0.7768
   7.000   0.1140   0.00669   0.00182   0.1010   0.1517   0.7791
   7.500   0.1716   0.00701   0.00201   0.1004   0.1199   0.7786
   8.000   0.2292   0.00733   0.00221   0.0998   0.0950   0.7779
   8.500   0.2865   0.00767   0.00246   0.0993   0.0748   0.7772
   9.000   0.3438   0.00801   0.00273   0.0988   0.0608   0.7765
   9.500   0.4007   0.00838   0.00304   0.0983   0.0499   0.7757
  10.000   0.4574   0.00878   0.00339   0.0978   0.0412   0.7749
  10.500   0.5139   0.00918   0.00376   0.0973   0.0356   0.7742
  11.000   0.5700   0.00959   0.00416   0.0968   0.0312   0.7734
  11.500   0.6258   0.01005   0.00462   0.0963   0.0277   0.7726
  12.000   0.6808   0.01060   0.00517   0.0959   0.0243   0.7719
  12.500   0.7361   0.01106   0.00565   0.0955   0.0225   0.7713
  13.000   0.7900   0.01170   0.00632   0.0951   0.0203   0.7706
  13.500   0.8441   0.01225   0.00690   0.0948   0.0191   0.7701
  14.000   0.8965   0.01299   0.00767   0.0945   0.0173   0.7699
  14.500   0.9489   0.01367   0.00841   0.0942   0.0165   0.7698
  15.000   1.0006   0.01437   0.00916   0.0938   0.0155   0.7696
  15.500   1.0501   0.01533   0.01016   0.0936   0.0144   0.7695
  16.000   1.0984   0.01636   0.01129   0.0935   0.0137   0.7693
  16.500   1.1465   0.01730   0.01231   0.0933   0.0132   0.7692
  17.000   1.1924   0.01841   0.01350   0.0931   0.0126   0.7690
  17.500   1.2349   0.01980   0.01496   0.0929   0.0120   0.7689
  18.000   1.2673   0.02215   0.01747   0.0927   0.0112   0.7687
  18.500   1.3011   0.02425   0.01970   0.0917   0.0110   0.7686
  19.000   1.3174   0.02920   0.02482   0.0861   0.0108   0.7686
  19.500   1.3219   0.03505   0.03082   0.0817   0.0106   0.7685
  20.000   1.3123   0.04259   0.03853   0.0769   0.0105   0.7685
  20.500   1.2846   0.05266   0.04881   0.0710   0.0104   0.7684
  21.000   1.2357   0.06620   0.06258   0.0633   0.0103   0.7684
  21.500   1.1626   0.08422   0.08086   0.0534   0.0104   0.7683
  22.000   1.0741   0.10584   0.10276   0.0419   0.0105   0.7683
  22.500   0.9980   0.12669   0.12383   0.0308   0.0105   0.7682
  23.000   0.9482   0.14406   0.14136   0.0213   0.0105   0.7682
  23.500   0.9196   0.15808   0.15550   0.0133   0.0103   0.7682
  24.000   0.8992   0.17109   0.16860   0.0056   0.0100   0.7682
  24.500   0.8841   0.18346   0.18106  -0.0019   0.0097   0.7682
  25.000   0.8730   0.19555   0.19322  -0.0095   0.0094   0.7682
