  
       XFOIL         Version 6.99
  
 Calculated polar for: NACA 0012                                       
  
 1 1 Reynolds number fixed          Mach number fixed         
  
 xtrf =   1.000 (top)        1.000 (bottom)  
 Mach =   0.000     Re =     2.332 e 6     Ncrit =   9.000
  
   alpha    CL        CD       CDp       CM     Top_Xtr  Bot_Xtr
  ------ -------- --------- --------- -------- -------- --------
 -15.000  -0.1911   0.03856   0.03454  -0.2042   0.7558   0.0317
 -14.500  -0.1385   0.03904   0.03500  -0.2050   0.7558   0.0358
 -14.000  -0.0864   0.03955   0.03550  -0.2056   0.7558   0.0408
 -13.500  -0.0346   0.04008   0.03603  -0.2060   0.7559   0.0467
 -13.000   0.0172   0.04061   0.03659  -0.2063   0.7559   0.0545
 -12.500   0.0689   0.04115   0.03716  -0.2066   0.7559   0.0660
 -12.000   0.1206   0.04170   0.03775  -0.2067   0.7560   0.0802
 -11.500   0.1721   0.04227   0.03837  -0.2068   0.7560   0.0977
 -11.000   0.2236   0.04283   0.03901  -0.2067   0.7560   0.1205
 -10.500   0.2748   0.04342   0.03966  -0.2066   0.7560   0.1443
 -10.000   0.3261   0.04400   0.04034  -0.2064   0.7561   0.1749
  -9.500   0.3770   0.04460   0.04102  -0.2060   0.7561   0.2041
  -9.000   0.4276   0.04522   0.04171  -0.2055   0.7561   0.2315
  -8.500   0.4780   0.04581   0.04239  -0.2050   0.7561   0.2619
  -8.000   0.5255   0.04622   0.04288  -0.2039   0.7561   0.2898
  -7.500   0.5723   0.04658   0.04330  -0.2027   0.7561   0.3134
  -7.000   0.6191   0.04693   0.04372  -0.2014   0.7560   0.3381
  -6.500   0.6656   0.04720   0.04407  -0.2000   0.7560   0.3602
  -6.000   0.7111   0.04733   0.04427  -0.1984   0.7559   0.3824
  -5.500   0.7541   0.04698   0.04399  -0.1965   0.7555   0.4014
  -5.000   0.8641   0.03735   0.03438  -0.2028   0.7308   0.4267
  -4.000   0.9317   0.03877   0.03520  -0.1967   0.5689   0.4560
  -3.500   0.9642   0.03923   0.03485  -0.1929   0.4087   0.4694
  -3.000   1.0045   0.03950   0.03469  -0.1902   0.3180   0.4824
  -2.500   1.0506   0.03938   0.03425  -0.1882   0.2468   0.4959
  -2.000   1.0926   0.03964   0.03422  -0.1857   0.1866   0.5071
  -1.500   1.1343   0.03996   0.03428  -0.1830   0.1356   0.5178
  -1.000   1.1771   0.04029   0.03444  -0.1805   0.1021   0.5284
  -0.500   1.2205   0.04056   0.03458  -0.1781   0.0793   0.5374
  -0.000   1.2651   0.04076   0.03469  -0.1758   0.0617   0.5473
   0.500   1.3082   0.04111   0.03495  -0.1733   0.0489   0.5550
   1.000   1.3508   0.04153   0.03533  -0.1708   0.0405   0.5633
   1.500   1.3929   0.04199   0.03575  -0.1682   0.0344   0.5708
   2.000   1.4346   0.04246   0.03620  -0.1655   0.0296   0.5768
   2.500   1.4757   0.04296   0.03669  -0.1628   0.0257   0.5840
   3.000   1.5163   0.04349   0.03721  -0.1600   0.0227   0.5899
   3.500   1.5566   0.04407   0.03780  -0.1571   0.0205   0.5949
   4.000   1.5958   0.04470   0.03843  -0.1541   0.0182   0.6008
   4.500   1.6346   0.04538   0.03914  -0.1511   0.0170   0.6058
   5.000   1.6723   0.04611   0.03989  -0.1480   0.0157   0.6097
   5.500   1.7082   0.04695   0.04076  -0.1446   0.0141   0.6143
   6.000   1.7443   0.04784   0.04170  -0.1414   0.0135   0.6184
   6.500   1.7785   0.04884   0.04275  -0.1379   0.0126   0.6223
   7.000   1.8099   0.05005   0.04400  -0.1341   0.0115   0.6257
   7.500   1.8411   0.05131   0.04533  -0.1303   0.0111   0.6283
   8.000   1.8712   0.05264   0.04674  -0.1266   0.0107   0.6319
   8.500   1.8990   0.05416   0.04834  -0.1226   0.0102   0.6345
   9.000   1.9222   0.05609   0.05033  -0.1182   0.0097   0.6372
   9.500   1.9403   0.05847   0.05282  -0.1133   0.0090   0.6398
  10.000   1.9592   0.06078   0.05524  -0.1087   0.0087   0.6421
  10.500   1.9789   0.06306   0.05763  -0.1044   0.0085   0.6442
  11.000   1.9922   0.06599   0.06068  -0.0997   0.0083   0.6462
  11.500   2.0041   0.06907   0.06388  -0.0951   0.0080   0.6476
  12.000   2.0116   0.07267   0.06761  -0.0904   0.0078   0.6489
  12.500   2.0154   0.07668   0.07176  -0.0859   0.0076   0.6504
  13.000   2.0121   0.08166   0.07689  -0.0814   0.0073   0.6519
  13.500   2.0018   0.08772   0.08314  -0.0775   0.0070   0.6534
  14.000   1.9791   0.09598   0.09163  -0.0748   0.0068   0.6548
  14.500   1.9511   0.10575   0.10166  -0.0744   0.0066   0.6561
  15.000   1.9301   0.11517   0.11130  -0.0760   0.0066   0.6573
  15.500   1.9014   0.12629   0.12266  -0.0800   0.0066   0.6582
  16.000   1.8666   0.13892   0.13555  -0.0866   0.0065   0.6587
  16.500   1.8214   0.15414   0.15106  -0.0968   0.0065   0.6590
  17.000   1.7641   0.17282   0.17005  -0.1114   0.0065   0.6591
  17.500   1.6962   0.19520   0.19276  -0.1307   0.0065   0.6591
  18.000   1.6371   0.21707   0.21492  -0.1508   0.0065   0.6590
  18.500   1.5984   0.23520   0.23326  -0.1677   0.0065   0.6591
  19.000   1.5714   0.25120   0.24943  -0.1828   0.0064   0.6594
  19.500   1.5560   0.26426   0.26262  -0.1951   0.0063   0.6597
  20.000   1.5429   0.27719   0.27568  -0.2074   0.0061   0.6601
  20.500   1.5301   0.29088   0.28949  -0.2205   0.0058   0.6603
  21.000   1.5140   0.30748   0.30621  -0.2361   0.0054   0.6605
  21.500   0.8931   0.33841   0.33746  -0.1671   0.0033   0.6496
  22.000   0.8928   0.34863   0.34769  -0.1692   0.0027   0.6505
  22.500   0.8940   0.35385   0.35293  -0.1709   0.0024   0.6520
  23.000   0.8953   0.35837   0.35746  -0.1726   0.0022   0.6538
  23.500   0.8963   0.36254   0.36165  -0.1742   0.0021   0.6558
  24.000   0.8953   0.37060   0.36972  -0.1760   0.0021   0.6572
  24.500   0.8949   0.37857   0.37770  -0.1778   0.0020   0.6583
  25.000   0.8950   0.38631   0.38545  -0.1796   0.0014   0.6590
