  
       XFOIL         Version 6.99
  
 Calculated polar for: NACA 0012                                       
  
 1 1 Reynolds number fixed          Mach number fixed         
  
 xtrf =   1.000 (top)        1.000 (bottom)  
 Mach =   0.000     Re =     2.332 e 6     Ncrit =   9.000
  
   alpha    CL        CD       CDp       CM     Top_Xtr  Bot_Xtr
  ------ -------- --------- --------- -------- -------- --------
 -15.000  -1.6959   0.02878   0.02413   0.0057   0.9999   0.0099
 -14.500  -1.6775   0.02655   0.02179   0.0091   0.9999   0.0102
 -14.000  -1.6552   0.02467   0.01981   0.0124   0.9999   0.0105
 -13.500  -1.6297   0.02308   0.01812   0.0158   0.9999   0.0107
 -13.000  -1.6050   0.02146   0.01640   0.0196   0.9999   0.0111
 -12.500  -1.5795   0.01993   0.01478   0.0236   0.9999   0.0118
 -12.000  -1.5481   0.01880   0.01360   0.0271   0.9999   0.0125
 -11.500  -1.5142   0.01784   0.01258   0.0304   0.9999   0.0130
 -11.000  -1.4780   0.01703   0.01170   0.0336   0.9999   0.0134
 -10.500  -1.4404   0.01598   0.01060   0.0365   0.9999   0.0145
 -10.000  -1.3978   0.01517   0.00977   0.0386   0.9999   0.0155
  -9.500  -1.3525   0.01449   0.00905   0.0403   0.9999   0.0163
  -9.000  -1.3076   0.01370   0.00824   0.0422   0.9999   0.0179
  -8.500  -1.2603   0.01306   0.00760   0.0436   0.9999   0.0194
  -8.000  -1.2124   0.01242   0.00694   0.0450   0.9999   0.0212
  -7.500  -1.1635   0.01184   0.00637   0.0463   0.9999   0.0233
  -6.500  -1.0636   0.01136   0.00525   0.0485   0.7255   0.0296
  -6.000  -1.0122   0.01092   0.00480   0.0494   0.7183   0.0334
  -5.500  -0.9606   0.01048   0.00437   0.0502   0.7117   0.0394
  -5.000  -0.9084   0.01004   0.00396   0.0509   0.7063   0.0477
  -4.500  -0.8562   0.00961   0.00358   0.0517   0.7008   0.0596
  -4.000  -0.8030   0.00918   0.00324   0.0523   0.6953   0.0736
  -3.500  -0.7502   0.00872   0.00288   0.0529   0.6888   0.0959
  -3.000  -0.6969   0.00824   0.00256   0.0535   0.6814   0.1245
  -2.500  -0.6438   0.00776   0.00224   0.0541   0.6724   0.1626
  -2.000  -0.5905   0.00731   0.00196   0.0547   0.6602   0.2072
  -1.500  -0.5371   0.00688   0.00170   0.0552   0.6453   0.2585
  -1.000  -0.4836   0.00648   0.00148   0.0557   0.6275   0.3149
  -0.500  -0.4299   0.00611   0.00129   0.0562   0.6067   0.3752
  -0.000  -0.3760   0.00579   0.00113   0.0567   0.5817   0.4377
   0.500  -0.3222   0.00546   0.00099   0.0572   0.5546   0.5094
   1.000  -0.2692   0.00509   0.00084   0.0578   0.5246   0.5983
   1.500  -0.2187   0.00457   0.00074   0.0589   0.4921   0.7484
   2.000  -0.1611   0.00467   0.00076   0.0587   0.4567   0.7656
   2.500  -0.1031   0.00481   0.00080   0.0585   0.4194   0.7754
   3.000  -0.0454   0.00498   0.00086   0.0582   0.3792   0.7837
   3.500   0.0126   0.00520   0.00093   0.0579   0.3378   0.7880
   4.000   0.0700   0.00541   0.00102   0.0576   0.2942   0.7943
   4.500   0.1275   0.00566   0.00114   0.0573   0.2518   0.7989
   5.000   0.1848   0.00598   0.00130   0.0570   0.2081   0.8025
   5.500   0.2420   0.00632   0.00148   0.0567   0.1692   0.8049
   6.000   0.2986   0.00665   0.00169   0.0564   0.1328   0.8100
   6.500   0.3550   0.00700   0.00193   0.0562   0.1041   0.8150
   7.000   0.4115   0.00737   0.00221   0.0560   0.0827   0.8194
   7.500   0.4681   0.00773   0.00249   0.0557   0.0661   0.8209
   8.000   0.5244   0.00813   0.00281   0.0555   0.0534   0.8218
   8.500   0.5803   0.00851   0.00316   0.0553   0.0441   0.8242
   9.000   0.6358   0.00892   0.00355   0.0551   0.0369   0.8269
   9.500   0.6912   0.00932   0.00395   0.0550   0.0324   0.8296
  10.000   0.7462   0.00975   0.00439   0.0548   0.0287   0.8325
  10.500   0.8006   0.01024   0.00489   0.0548   0.0254   0.8357
  11.500   0.9078   0.01128   0.00600   0.0548   0.0210   0.8457
  12.000   0.9601   0.01188   0.00663   0.0549   0.0190   0.8529
  12.500   1.0118   0.01249   0.00733   0.0551   0.0177   0.8628
  13.000   1.0628   0.01311   0.00802   0.0554   0.0166   0.8757
  13.500   1.1106   0.01398   0.00900   0.0560   0.0151   0.8946
  14.000   1.1587   0.01462   0.00979   0.0567   0.0146   0.9200
  14.500   1.2037   0.01533   0.01065   0.0580   0.0139   0.9517
  15.000   1.2489   0.01626   0.01166   0.0589   0.0131   0.9809
  15.500   1.2998   0.01770   0.01321   0.0577   0.0122   0.9955
  16.000   1.3473   0.01878   0.01437   0.0575   0.0119   1.0001
  16.500   1.3836   0.01998   0.01565   0.0592   0.0115   1.0001
  17.000   1.4163   0.02141   0.01716   0.0609   0.0111   1.0001
  17.500   1.4360   0.02323   0.01909   0.0639   0.0107   1.0001
  18.000   1.4472   0.02639   0.02239   0.0648   0.0103   1.0001
  18.500   1.4479   0.03262   0.02883   0.0608   0.0099   1.0001
  19.000   1.4354   0.04046   0.03690   0.0565   0.0097   1.0001
  19.500   1.4187   0.04915   0.04579   0.0518   0.0097   1.0001
  20.000   1.3807   0.06111   0.05799   0.0454   0.0097   1.0001
  20.500   1.3124   0.07827   0.07544   0.0363   0.0097   1.0001
  21.000   1.2138   0.10151   0.09902   0.0241   0.0097   1.0001
  21.500   1.1239   0.12477   0.12257   0.0118   0.0098   1.0001
  22.000   1.0637   0.14406   0.14206   0.0012   0.0098   1.0001
  22.500   1.0323   0.15871   0.15685  -0.0073   0.0097   1.0001
  23.000   1.0055   0.17306   0.17134  -0.0160   0.0096   1.0001
  23.500   0.9889   0.18584   0.18424  -0.0240   0.0095   1.0001
  24.000   0.9749   0.19866   0.19716  -0.0322   0.0092   1.0001
  24.500   0.9602   0.21219   0.21080  -0.0410   0.0089   1.0001
