  
       XFOIL         Version 6.99
  
 Calculated polar for: NACA 0012                                       
  
 1 1 Reynolds number fixed          Mach number fixed         
  
 xtrf =   1.000 (top)        1.000 (bottom)  
 Mach =   0.000     Re =     1.521 e 6     Ncrit =   9.000
  
   alpha    CL        CD       CDp       CM     Top_Xtr  Bot_Xtr
  ------ -------- --------- --------- -------- -------- --------
 -15.000  -0.0995   0.05310   0.04894  -0.2112   0.7579   0.0400
 -14.500  -0.0443   0.05374   0.04954  -0.2128   0.7579   0.0456
 -14.000   0.0100   0.05442   0.05021  -0.2140   0.7580   0.0531
 -13.500   0.0640   0.05511   0.05091  -0.2151   0.7580   0.0633
 -13.000   0.1176   0.05582   0.05166  -0.2159   0.7580   0.0773
 -12.500   0.1703   0.05656   0.05243  -0.2165   0.7581   0.0934
 -12.000   0.2229   0.05731   0.05322  -0.2168   0.7581   0.1144
 -11.500   0.2751   0.05806   0.05405  -0.2171   0.7581   0.1398
 -11.000   0.3272   0.05882   0.05488  -0.2172   0.7581   0.1688
 -10.500   0.3788   0.05959   0.05573  -0.2172   0.7582   0.1998
  -9.500   0.4716   0.05607   0.05234  -0.2153   0.7594   0.2582
  -9.000   0.5021   0.05681   0.05313  -0.2119   0.7597   0.2794
  -8.500   0.5290   0.05755   0.05394  -0.2079   0.7602   0.3016
  -8.000   0.5779   0.05820   0.05466  -0.2070   0.7601   0.3271
  -7.500   0.6464   0.05886   0.05538  -0.2089   0.7595   0.3533
  -7.000   0.7124   0.05972   0.05631  -0.2103   0.7591   0.3767
  -6.500   0.7626   0.06430   0.06097  -0.2093   0.7582   0.3966
  -6.000   0.8057   0.06446   0.06121  -0.2074   0.7581   0.4139
  -5.500   0.8419   0.06403   0.06083  -0.2044   0.7579   0.4287
  -4.000   0.9920   0.05434   0.05132  -0.1999   0.7260   0.4740
  -3.500   1.0338   0.05361   0.04927  -0.1978   0.4533   0.4857
  -3.000   1.0745   0.05379   0.04889  -0.1952   0.3388   0.4978
  -2.500   1.1242   0.05317   0.04779  -0.1938   0.2478   0.5086
  -2.000   1.1681   0.05318   0.04748  -0.1915   0.1843   0.5190
  -1.500   1.2117   0.05325   0.04728  -0.1892   0.1330   0.5285
  -1.000   1.2564   0.05326   0.04709  -0.1869   0.0970   0.5371
  -0.500   1.3011   0.05330   0.04698  -0.1847   0.0723   0.5459
  -0.000   1.3436   0.05357   0.04717  -0.1821   0.0571   0.5538
   0.500   1.3856   0.05388   0.04739  -0.1795   0.0455   0.5609
   1.000   1.4270   0.05423   0.04771  -0.1767   0.0375   0.5677
   1.500   1.4679   0.05464   0.04811  -0.1740   0.0326   0.5741
   2.000   1.5082   0.05509   0.04856  -0.1711   0.0285   0.5799
   2.500   1.5474   0.05557   0.04903  -0.1680   0.0248   0.5855
   3.000   1.5863   0.05612   0.04962  -0.1650   0.0226   0.5910
   3.500   1.6240   0.05673   0.05023  -0.1618   0.0202   0.5955
   4.000   1.6610   0.05741   0.05097  -0.1586   0.0187   0.6001
   4.500   1.6951   0.05821   0.05180  -0.1548   0.0167   0.6040
   5.000   1.7299   0.05911   0.05277  -0.1514   0.0160   0.6081
   5.500   1.7629   0.06013   0.05385  -0.1477   0.0150   0.6120
   6.000   1.7926   0.06139   0.05516  -0.1437   0.0139   0.6153
   6.500   1.8205   0.06279   0.05667  -0.1395   0.0131   0.6178
   7.000   1.8482   0.06423   0.05821  -0.1355   0.0125   0.6202
   7.500   1.8734   0.06590   0.05997  -0.1312   0.0119   0.6228
   8.000   1.8949   0.06793   0.06208  -0.1266   0.0113   0.6262
   8.500   1.9039   0.07116   0.06547  -0.1209   0.0106   0.6293
   9.000   1.9218   0.07361   0.06805  -0.1164   0.0103   0.6313
   9.500   1.9365   0.07634   0.07094  -0.1117   0.0100   0.6326
  10.000   1.9442   0.07985   0.07461  -0.1068   0.0097   0.6337
  10.500   1.9518   0.08345   0.07835  -0.1021   0.0094   0.6349
  11.000   1.9536   0.08779   0.08284  -0.0976   0.0091   0.6361
  11.500   1.9502   0.09284   0.08806  -0.0933   0.0088   0.6375
  12.000   1.9349   0.09970   0.09514  -0.0897   0.0084   0.6391
  12.500   1.9045   0.10941   0.10514  -0.0880   0.0082   0.6407
  13.000   1.8890   0.11777   0.11373  -0.0883   0.0081   0.6432
  13.500   1.8699   0.12719   0.12339  -0.0906   0.0080   0.6457
  14.000   1.8452   0.13787   0.13433  -0.0953   0.0079   0.6462
  14.500   1.8154   0.15006   0.14679  -0.1026   0.0079   0.6466
  15.000   1.7795   0.16406   0.16108  -0.1128   0.0078   0.6469
  15.500   1.7391   0.17974   0.17704  -0.1255   0.0078   0.6472
  16.000   1.6972   0.19645   0.19402  -0.1402   0.0078   0.6473
  16.500   1.6589   0.21326   0.21108  -0.1556   0.0077   0.6475
  17.000   1.6281   0.22904   0.22707  -0.1704   0.0076   0.6477
  17.500   1.6055   0.24334   0.24156  -0.1840   0.0075   0.6480
  18.000   1.5804   0.25941   0.25782  -0.1996   0.0074   0.6482
  19.500   0.9058   0.33088   0.32989  -0.1706   0.0047   0.6349
  20.000   0.9072   0.33554   0.33457  -0.1720   0.0045   0.6360
  20.500   0.9089   0.33937   0.33842  -0.1732   0.0044   0.6375
  21.000   0.9072   0.34874   0.34780  -0.1753   0.0042   0.6388
  21.500   0.9070   0.35753   0.35660  -0.1773   0.0034   0.6406
  22.000   0.9075   0.36283   0.36192  -0.1788   0.0032   0.6441
  22.500   0.9079   0.36742   0.36652  -0.1803   0.0030   0.6461
  23.000   0.9081   0.37135   0.37047  -0.1816   0.0029   0.6469
  23.500   0.9064   0.38041   0.37955  -0.1835   0.0028   0.6475
  24.000   0.9060   0.38881   0.38796  -0.1852   0.0023   0.6482
  24.500   0.9053   0.39413   0.39330  -0.1867   0.0020   0.6492
  25.000   0.9045   0.39875   0.39795  -0.1882   0.0019   0.6506
