  
       XFOIL         Version 6.99
  
 Calculated polar for: NACA 0012                                       
  
 1 1 Reynolds number fixed          Mach number fixed         
  
 xtrf =   1.000 (top)        1.000 (bottom)  
 Mach =   0.000     Re =     2.332 e 6     Ncrit =   9.000
  
   alpha    CL        CD       CDp       CM     Top_Xtr  Bot_Xtr
  ------ -------- --------- --------- -------- -------- --------
 -15.000  -1.6655   0.02683   0.02216   0.0008   0.9999   0.0101
 -14.500  -1.6448   0.02483   0.02006   0.0041   0.9999   0.0104
 -14.000  -1.6208   0.02314   0.01827   0.0075   0.9999   0.0107
 -13.500  -1.5932   0.02174   0.01678   0.0108   0.9999   0.0109
 -13.000  -1.5702   0.02008   0.01500   0.0150   0.9999   0.0115
 -12.500  -1.5412   0.01884   0.01370   0.0188   0.9999   0.0122
 -12.000  -1.5083   0.01787   0.01267   0.0223   0.9999   0.0128
 -11.500  -1.4702   0.01702   0.01177   0.0250   0.9999   0.0134
 -11.000  -1.4298   0.01610   0.01078   0.0274   0.9999   0.0140
 -10.500  -1.3878   0.01518   0.00983   0.0295   0.9999   0.0152
 -10.000  -1.3426   0.01446   0.00908   0.0312   0.9999   0.0161
  -9.500  -1.2964   0.01375   0.00833   0.0328   0.9999   0.0171
  -9.000  -1.2496   0.01303   0.00762   0.0342   0.9999   0.0189
  -8.500  -1.2006   0.01248   0.00704   0.0354   0.9999   0.0200
  -8.000  -1.1525   0.01179   0.00637   0.0368   0.9999   0.0227
  -7.500  -1.1026   0.01126   0.00583   0.0378   0.9999   0.0249
  -7.000  -1.0525   0.01073   0.00533   0.0389   0.9999   0.0281
  -6.500  -1.0023   0.01020   0.00484   0.0400   0.9999   0.0323
  -6.000  -0.9427   0.00987   0.00433   0.0392   0.8790   0.0381
  -5.500  -0.8937   0.00983   0.00389   0.0406   0.7328   0.0451
  -5.000  -0.8408   0.00945   0.00352   0.0412   0.7204   0.0542
  -4.500  -0.7878   0.00905   0.00316   0.0418   0.7123   0.0683
  -4.000  -0.7343   0.00865   0.00284   0.0423   0.7052   0.0861
  -3.500  -0.6809   0.00825   0.00254   0.0428   0.6980   0.1115
  -3.000  -0.6272   0.00777   0.00224   0.0433   0.6903   0.1466
  -2.500  -0.5733   0.00734   0.00197   0.0437   0.6809   0.1877
  -2.000  -0.5194   0.00690   0.00171   0.0441   0.6686   0.2362
  -1.500  -0.4653   0.00649   0.00149   0.0446   0.6525   0.2898
  -1.000  -0.4110   0.00614   0.00130   0.0449   0.6319   0.3459
  -0.000  -0.3021   0.00554   0.00100   0.0456   0.5801   0.4698
   0.500  -0.2476   0.00528   0.00089   0.0459   0.5494   0.5380
   1.000  -0.1941   0.00494   0.00077   0.0464   0.5160   0.6282
   1.500  -0.1417   0.00460   0.00073   0.0473   0.4802   0.7530
   2.000  -0.0842   0.00473   0.00077   0.0471   0.4412   0.7706
   2.500  -0.0268   0.00487   0.00082   0.0469   0.4010   0.7828
   3.000   0.0309   0.00507   0.00088   0.0467   0.3579   0.7911
   3.500   0.0882   0.00528   0.00097   0.0464   0.3150   0.7989
   4.000   0.1456   0.00556   0.00109   0.0462   0.2691   0.8044
   4.500   0.2026   0.00584   0.00123   0.0459   0.2254   0.8106
   5.000   0.2594   0.00614   0.00140   0.0457   0.1850   0.8163
   5.500   0.3161   0.00651   0.00162   0.0455   0.1460   0.8209
   6.000   0.3725   0.00686   0.00185   0.0453   0.1149   0.8265
   6.500   0.4285   0.00722   0.00212   0.0452   0.0892   0.8332
   7.500   0.5403   0.00795   0.00273   0.0450   0.0569   0.8465
   8.000   0.5961   0.00832   0.00307   0.0449   0.0473   0.8511
   8.500   0.6517   0.00872   0.00344   0.0447   0.0399   0.8556
   9.000   0.7065   0.00912   0.00385   0.0447   0.0342   0.8630
   9.500   0.7610   0.00956   0.00430   0.0448   0.0297   0.8710
  10.000   0.8146   0.01004   0.00480   0.0449   0.0258   0.8817
  10.500   0.8682   0.01046   0.00529   0.0451   0.0238   0.8942
  11.000   0.9201   0.01103   0.00591   0.0455   0.0213   0.9101
  11.500   0.9714   0.01150   0.00647   0.0460   0.0199   0.9289
  12.000   1.0199   0.01218   0.00723   0.0470   0.0178   0.9506
  12.500   1.0693   0.01272   0.00785   0.0478   0.0170   0.9707
  13.000   1.1222   0.01346   0.00862   0.0476   0.0159   0.9852
  13.500   1.1770   0.01445   0.00968   0.0467   0.0146   0.9942
  14.000   1.2367   0.01528   0.01056   0.0447   0.0140   0.9978
  14.500   1.2882   0.01620   0.01152   0.0443   0.0132   1.0001
  15.000   1.3240   0.01729   0.01267   0.0468   0.0124   1.0001
  15.500   1.3609   0.01855   0.01402   0.0488   0.0118   1.0001
  16.000   1.3992   0.01966   0.01521   0.0504   0.0115   1.0001
  16.500   1.4335   0.02097   0.01661   0.0522   0.0112   1.0001
  17.000   1.4570   0.02253   0.01827   0.0553   0.0108   1.0001
  17.500   1.4737   0.02478   0.02063   0.0577   0.0105   1.0001
  18.000   1.4838   0.02858   0.02458   0.0574   0.0101   1.0001
  18.500   1.4822   0.03491   0.03111   0.0540   0.0098   1.0001
  19.000   1.4592   0.04413   0.04059   0.0493   0.0095   1.0001
  19.500   1.4366   0.05378   0.05046   0.0443   0.0095   1.0001
  20.000   1.3880   0.06755   0.06449   0.0371   0.0095   1.0001
  20.500   1.3067   0.08726   0.08452   0.0267   0.0095   1.0001
  21.000   1.2180   0.10944   0.10700   0.0151   0.0096   1.0001
  21.500   1.1431   0.13050   0.12832   0.0039   0.0097   1.0001
  22.000   1.0841   0.14988   0.14790  -0.0070   0.0097   1.0001
  22.500   1.0431   0.16686   0.16505  -0.0171   0.0095   1.0001
  23.000   1.0244   0.17977   0.17808  -0.0251   0.0094   1.0001
  23.500   1.0099   0.19235   0.19076  -0.0332   0.0093   1.0001
  24.000   0.9959   0.20526   0.20379  -0.0417   0.0090   1.0001
  24.500   0.9730   0.22179   0.22045  -0.0523   0.0086   1.0001
  25.000   0.5481   0.23214   0.23112  -0.0291   0.0058   1.0001
