  
       XFOIL         Version 6.99
  
 Calculated polar for: NACA 0012                                       
  
 1 1 Reynolds number fixed          Mach number fixed         
  
 xtrf =   1.000 (top)        1.000 (bottom)  
 Mach =   0.000     Re =     1.521 e 6     Ncrit =   9.000
  
   alpha    CL        CD       CDp       CM     Top_Xtr  Bot_Xtr
  ------ -------- --------- --------- -------- -------- --------
 -15.000  -1.1118   0.01801   0.01281  -0.0764   0.8200   0.0159
 -14.500  -1.0678   0.01662   0.01130  -0.0760   0.8185   0.0169
 -14.000  -1.0198   0.01561   0.01022  -0.0759   0.8172   0.0180
 -13.500  -0.9695   0.01481   0.00934  -0.0759   0.8161   0.0191
 -13.000  -0.9199   0.01385   0.00829  -0.0758   0.8151   0.0206
 -12.500  -0.8680   0.01313   0.00754  -0.0758   0.8144   0.0223
 -12.000  -0.8155   0.01242   0.00677  -0.0759   0.8138   0.0243
 -11.500  -0.7622   0.01178   0.00610  -0.0761   0.8133   0.0267
 -11.000  -0.7084   0.01116   0.00545  -0.0762   0.8130   0.0298
 -10.500  -0.6536   0.01067   0.00493  -0.0765   0.8127   0.0332
 -10.000  -0.5987   0.01015   0.00441  -0.0768   0.8126   0.0380
  -9.500  -0.5433   0.00966   0.00394  -0.0771   0.8125   0.0446
  -9.000  -0.4874   0.00922   0.00352  -0.0774   0.8125   0.0529
  -8.500  -0.4314   0.00876   0.00313  -0.0777   0.8125   0.0664
  -8.000  -0.3749   0.00836   0.00280  -0.0781   0.8126   0.0824
  -7.500  -0.3184   0.00794   0.00250  -0.0785   0.8128   0.1060
  -7.000  -0.2615   0.00756   0.00224  -0.0790   0.8130   0.1358
  -6.500  -0.2044   0.00719   0.00202  -0.0794   0.8131   0.1718
  -6.000  -0.1476   0.00683   0.00180  -0.0797   0.8103   0.2130
  -5.500  -0.0907   0.00655   0.00164  -0.0800   0.8055   0.2562
  -5.000  -0.0331   0.00628   0.00151  -0.0804   0.8030   0.2993
  -4.500   0.0245   0.00600   0.00139  -0.0807   0.8005   0.3427
  -3.500   0.1402   0.00559   0.00122  -0.0814   0.7935   0.4215
  -3.000   0.1980   0.00549   0.00120  -0.0816   0.7881   0.4571
  -2.500   0.2560   0.00532   0.00116  -0.0819   0.7831   0.4908
  -2.000   0.3138   0.00520   0.00112  -0.0820   0.7755   0.5208
  -1.500   0.3714   0.00511   0.00111  -0.0821   0.7645   0.5492
  -1.000   0.4288   0.00504   0.00110  -0.0821   0.7445   0.5733
  -0.500   0.4721   0.00597   0.00138  -0.0795   0.5513   0.5945
  -0.000   0.5218   0.00656   0.00165  -0.0782   0.4570   0.6134
   0.500   0.5723   0.00709   0.00192  -0.0771   0.3816   0.6300
   1.000   0.6229   0.00762   0.00221  -0.0760   0.3132   0.6439
   1.500   0.6734   0.00819   0.00252  -0.0749   0.2511   0.6559
   2.000   0.7239   0.00876   0.00288  -0.0738   0.1970   0.6661
   2.500   0.7743   0.00936   0.00327  -0.0727   0.1499   0.6740
   3.000   0.8247   0.00998   0.00369  -0.0716   0.1131   0.6815
   3.500   0.8752   0.01054   0.00413  -0.0705   0.0866   0.6871
   4.000   0.9259   0.01111   0.00458  -0.0694   0.0678   0.6930
   4.500   0.9757   0.01165   0.00505  -0.0682   0.0535   0.6986
   5.000   1.0256   0.01217   0.00553  -0.0670   0.0445   0.7039
   5.500   1.0747   0.01268   0.00604  -0.0657   0.0378   0.7091
   6.000   1.1228   0.01326   0.00662  -0.0642   0.0323   0.7145
   6.500   1.1710   0.01378   0.00718  -0.0628   0.0291   0.7200
   7.000   1.2177   0.01440   0.00786  -0.0611   0.0262   0.7262
   7.500   1.2625   0.01514   0.00863  -0.0592   0.0232   0.7334
   8.000   1.3075   0.01574   0.00935  -0.0573   0.0217   0.7472
   8.500   1.3458   0.01607   0.01022  -0.0541   0.0199   0.9999
   9.000   1.3837   0.01700   0.01120  -0.0510   0.0186   0.9999
   9.500   1.4219   0.01785   0.01211  -0.0481   0.0175   0.9999
  10.000   1.4561   0.01900   0.01329  -0.0447   0.0162   0.9999
  10.500   1.4885   0.02023   0.01462  -0.0413   0.0154   0.9999
  11.000   1.5213   0.02140   0.01589  -0.0380   0.0148   0.9999
  11.500   1.5515   0.02276   0.01732  -0.0346   0.0141   0.9999
  12.000   1.5766   0.02449   0.01913  -0.0309   0.0134   0.9999
  12.500   1.5928   0.02688   0.02168  -0.0264   0.0128   0.9999
  13.000   1.6166   0.02875   0.02367  -0.0231   0.0124   0.9999
  13.500   1.6368   0.03094   0.02598  -0.0197   0.0120   0.9999
  14.000   1.6525   0.03356   0.02873  -0.0163   0.0116   0.9999
  14.500   1.6633   0.03667   0.03198  -0.0130   0.0113   0.9999
  15.000   1.6670   0.04060   0.03605  -0.0098   0.0109   0.9999
  15.500   1.6583   0.04604   0.04169  -0.0072   0.0106   0.9999
  16.000   1.6318   0.05460   0.05052  -0.0067   0.0103   0.9999
  16.500   1.6130   0.06396   0.06014  -0.0091   0.0102   0.9999
  17.000   1.5851   0.07568   0.07213  -0.0139   0.0101   0.9999
  17.500   1.5367   0.09137   0.08812  -0.0212   0.0101   0.9999
  18.000   1.4675   0.11109   0.10816  -0.0312   0.0101   0.9999
  18.500   1.3964   0.13206   0.12943  -0.0426   0.0102   0.9999
  19.000   1.3423   0.15085   0.14846  -0.0538   0.0102   0.9999
  19.500   1.3039   0.16738   0.16518  -0.0643   0.0101   0.9999
  20.000   1.2759   0.18237   0.18035  -0.0745   0.0100   0.9999
  20.500   1.2509   0.19739   0.19554  -0.0850   0.0099   0.9999
  21.000   1.2284   0.21269   0.21100  -0.0961   0.0097   0.9999
  22.500   1.1058   0.30844   0.30714  -0.1548   0.0064   0.9999
  23.000   1.1208   0.31299   0.31170  -0.1591   0.0063   0.9999
  23.500   0.7186   0.27404   0.27295  -0.0932   0.0063   0.9999
  25.000   0.7303   0.29521   0.29414  -0.1007   0.0050   0.9999
