  
       XFOIL         Version 6.99
  
 Calculated polar for: NACA 0012                                       
  
 1 1 Reynolds number fixed          Mach number fixed         
  
 xtrf =   1.000 (top)        1.000 (bottom)  
 Mach =   0.000     Re =     1.521 e 6     Ncrit =   9.000
  
   alpha    CL        CD       CDp       CM     Top_Xtr  Bot_Xtr
  ------ -------- --------- --------- -------- -------- --------
 -15.000  -1.3418   0.02119   0.01647  -0.0435   1.0000   0.0139
 -14.500  -1.3049   0.02003   0.01521  -0.0416   1.0000   0.0143
 -14.000  -1.2727   0.01839   0.01343  -0.0391   1.0000   0.0152
 -13.500  -1.2346   0.01725   0.01224  -0.0370   1.0000   0.0160
 -13.000  -1.1960   0.01636   0.01128  -0.0346   1.0000   0.0169
 -12.500  -1.1587   0.01563   0.01048  -0.0317   1.0000   0.0175
 -12.000  -1.1142   0.01450   0.00929  -0.0306   0.9988   0.0191
 -11.500  -1.0523   0.01372   0.00847  -0.0327   0.9960   0.0206
 -11.000  -0.9897   0.01280   0.00750  -0.0351   0.9937   0.0227
 -10.500  -0.9292   0.01212   0.00680  -0.0367   0.9887   0.0247
 -10.000  -0.8680   0.01136   0.00603  -0.0385   0.9832   0.0279
  -9.500  -0.8126   0.01077   0.00541  -0.0388   0.9723   0.0312
  -9.000  -0.7598   0.01027   0.00488  -0.0383   0.9590   0.0349
  -8.500  -0.7082   0.00975   0.00435  -0.0376   0.9446   0.0407
  -8.000  -0.6557   0.00929   0.00388  -0.0371   0.9311   0.0479
  -7.500  -0.6025   0.00883   0.00343  -0.0366   0.9190   0.0589
  -6.500  -0.4945   0.00797   0.00267  -0.0361   0.8952   0.0936
  -6.000  -0.4400   0.00755   0.00234  -0.0358   0.8826   0.1208
  -5.500  -0.3852   0.00717   0.00204  -0.0357   0.8722   0.1551
  -5.000  -0.3297   0.00675   0.00179  -0.0357   0.8630   0.1967
  -4.500  -0.2741   0.00640   0.00157  -0.0357   0.8544   0.2419
  -4.000  -0.2179   0.00607   0.00139  -0.0357   0.8457   0.2901
  -3.500  -0.1615   0.00579   0.00125  -0.0358   0.8371   0.3382
  -3.000  -0.1048   0.00554   0.00114  -0.0359   0.8275   0.3853
  -2.500  -0.0480   0.00532   0.00106  -0.0360   0.8172   0.4321
  -2.000   0.0087   0.00516   0.00099  -0.0360   0.8050   0.4758
  -1.500   0.0657   0.00502   0.00095  -0.0360   0.7898   0.5172
  -1.000   0.1225   0.00491   0.00093  -0.0360   0.7693   0.5556
  -0.500   0.1778   0.00493   0.00090  -0.0356   0.7007   0.5910
  -0.000   0.2287   0.00546   0.00103  -0.0345   0.5835   0.6219
   0.500   0.2829   0.00577   0.00117  -0.0340   0.5113   0.6494
   1.000   0.3373   0.00612   0.00132  -0.0337   0.4452   0.6707
   1.500   0.3918   0.00648   0.00149  -0.0333   0.3830   0.6874
   2.000   0.4461   0.00686   0.00167  -0.0330   0.3240   0.7006
   2.500   0.4997   0.00726   0.00187  -0.0325   0.2660   0.7128
   3.000   0.5530   0.00763   0.00210  -0.0320   0.2138   0.7274
   3.500   0.6056   0.00801   0.00238  -0.0314   0.1668   0.7533
   4.000   0.6506   0.00802   0.00276  -0.0289   0.1296   0.9236
   4.500   0.7127   0.00853   0.00318  -0.0302   0.0968   0.9854
   5.000   0.7834   0.00912   0.00362  -0.0336   0.0725   0.9979
   5.500   0.8389   0.00964   0.00405  -0.0337   0.0578   1.0000
   6.000   0.8860   0.01016   0.00449  -0.0319   0.0469   1.0000
   6.500   0.9339   0.01069   0.00498  -0.0303   0.0397   1.0000
   7.000   0.9827   0.01123   0.00549  -0.0290   0.0345   1.0000
   7.500   1.0320   0.01178   0.00604  -0.0277   0.0307   1.0000
   8.000   1.0806   0.01241   0.00667  -0.0264   0.0274   1.0000
   8.500   1.1281   0.01314   0.00740  -0.0250   0.0243   1.0000
   9.000   1.1765   0.01377   0.00806  -0.0238   0.0226   1.0000
   9.500   1.2221   0.01462   0.00893  -0.0221   0.0205   1.0000
  10.000   1.2680   0.01538   0.00974  -0.0206   0.0193   1.0000
  10.500   1.3125   0.01619   0.01060  -0.0189   0.0179   1.0000
  11.000   1.3520   0.01737   0.01183  -0.0165   0.0166   1.0000
  11.500   1.3933   0.01825   0.01280  -0.0144   0.0159   1.0000
  12.000   1.4305   0.01926   0.01389  -0.0117   0.0151   1.0000
  12.500   1.4593   0.02052   0.01522  -0.0078   0.0143   1.0000
  13.000   1.4800   0.02232   0.01715  -0.0032   0.0136   1.0000
  13.500   1.5083   0.02370   0.01864   0.0000   0.0132   1.0000
  14.000   1.5318   0.02546   0.02052   0.0033   0.0127   1.0000
  14.500   1.5515   0.02760   0.02279   0.0065   0.0123   1.0000
  15.000   1.5663   0.03029   0.02559   0.0094   0.0119   1.0000
  15.500   1.5716   0.03401   0.02947   0.0121   0.0115   1.0000
  16.000   1.5573   0.04006   0.03576   0.0139   0.0111   1.0000
  16.500   1.5526   0.04605   0.04196   0.0138   0.0110   1.0000
  17.000   1.5423   0.05374   0.04988   0.0115   0.0108   1.0000
  17.500   1.5185   0.06432   0.06072   0.0069   0.0107   1.0000
  18.000   1.4757   0.07850   0.07518   0.0001   0.0107   1.0000
  18.500   1.4096   0.09704   0.09403  -0.0092   0.0107   1.0000
  19.000   1.3372   0.11746   0.11475  -0.0198   0.0108   1.0000
  19.500   1.2758   0.13686   0.13440  -0.0304   0.0108   1.0000
  20.000   1.2304   0.15420   0.15194  -0.0406   0.0108   1.0000
  20.500   1.1993   0.16936   0.16727  -0.0501   0.0106   1.0000
  21.000   1.1713   0.18474   0.18282  -0.0602   0.0105   1.0000
  21.500   1.1479   0.19972   0.19796  -0.0703   0.0103   1.0000
  23.000   0.6468   0.24880   0.24760  -0.0663   0.0074   1.0000
  23.500   0.6544   0.25358   0.25239  -0.0688   0.0070   1.0000
  24.000   0.6623   0.25799   0.25681  -0.0712   0.0069   1.0000
  24.500   0.6681   0.26366   0.26249  -0.0735   0.0067   1.0000
  25.000   0.6696   0.27321   0.27206  -0.0766   0.0060   1.0000
