  
       XFOIL         Version 6.99
  
 Calculated polar for: NACA 0012                                       
  
 1 1 Reynolds number fixed          Mach number fixed         
  
 xtrf =   1.000 (top)        1.000 (bottom)  
 Mach =   0.000     Re =     1.521 e 6     Ncrit =   9.000
  
   alpha    CL        CD       CDp       CM     Top_Xtr  Bot_Xtr
  ------ -------- --------- --------- -------- -------- --------
 -15.000  -1.7730   0.07309   0.06853   0.0406   0.7063   0.0096
 -14.500  -1.7871   0.06546   0.06068   0.0417   0.7048   0.0098
 -14.000  -1.7922   0.05971   0.05474   0.0444   0.7033   0.0100
 -13.500  -1.7925   0.05486   0.04972   0.0478   0.7017   0.0103
 -13.000  -1.7879   0.05078   0.04547   0.0516   0.6999   0.0106
 -12.500  -1.7792   0.04724   0.04176   0.0555   0.6981   0.0108
 -12.000  -1.7652   0.04426   0.03864   0.0595   0.6961   0.0111
 -11.500  -1.7553   0.04105   0.03526   0.0641   0.6941   0.0114
 -11.000  -1.7435   0.03804   0.03212   0.0689   0.6921   0.0121
 -10.500  -1.7221   0.03588   0.02985   0.0729   0.6902   0.0126
 -10.000  -1.6980   0.03396   0.02782   0.0768   0.6878   0.0132
  -9.500  -1.6701   0.03230   0.02606   0.0804   0.6850   0.0137
  -9.000  -1.6435   0.03054   0.02419   0.0843   0.6830   0.0144
  -8.500  -1.6140   0.02896   0.02254   0.0879   0.6811   0.0155
  -8.000  -1.5807   0.02765   0.02117   0.0911   0.6778   0.0164
  -7.500  -1.5455   0.02649   0.01993   0.0942   0.6748   0.0171
  -7.000  -1.5114   0.02515   0.01854   0.0975   0.6725   0.0188
  -6.500  -1.4733   0.02413   0.01747   0.1003   0.6704   0.0202
  -6.000  -1.4349   0.02310   0.01640   0.1031   0.6665   0.0221
  -5.500  -1.3955   0.02214   0.01543   0.1058   0.6628   0.0243
  -5.000  -1.3552   0.02123   0.01449   0.1085   0.6595   0.0268
  -4.500  -1.3134   0.02043   0.01368   0.1109   0.6558   0.0298
  -4.000  -1.2720   0.01959   0.01287   0.1134   0.6507   0.0345
  -3.500  -1.2298   0.01881   0.01210   0.1159   0.6458   0.0401
  -3.000  -1.1873   0.01805   0.01138   0.1182   0.6405   0.0478
  -2.500  -1.1449   0.01730   0.01068   0.1207   0.6339   0.0579
  -2.000  -1.1029   0.01656   0.00998   0.1232   0.6269   0.0725
  -1.500  -1.0616   0.01577   0.00932   0.1258   0.6194   0.0929
  -1.000  -1.0217   0.01494   0.00862   0.1287   0.6107   0.1218
  -0.500  -0.9845   0.01398   0.00786   0.1319   0.6017   0.1609
  -0.000  -0.9498   0.01293   0.00699   0.1356   0.5913   0.2073
   0.500  -0.9201   0.01166   0.00596   0.1401   0.5808   0.2633
   1.000  -0.8964   0.01030   0.00484   0.1458   0.5697   0.3257
   1.500  -0.8832   0.00907   0.00384   0.1541   0.5573   0.3965
   2.000  -0.8673   0.00780   0.00299   0.1621   0.5451   0.5009
   2.500  -0.8539   0.00607   0.00206   0.1707   0.5323   0.7298
   3.000  -0.7969   0.00642   0.00232   0.1708   0.5152   0.7410
   3.500  -0.7384   0.00682   0.00272   0.1707   0.4962   0.7490
   4.000  -0.6795   0.00732   0.00316   0.1705   0.4755   0.7536
   4.500  -0.6220   0.00738   0.00315   0.1703   0.4530   0.7578
   5.000  -0.5618   0.00774   0.00351   0.1698   0.4286   0.7607
   5.500  -0.5016   0.00816   0.00387   0.1691   0.4025   0.7613
   6.000  -0.4409   0.00865   0.00431   0.1683   0.3724   0.7606
   6.500  -0.3784   0.00950   0.00515   0.1673   0.3412   0.7647
   7.000  -0.3175   0.01010   0.00568   0.1665   0.3069   0.7673
   7.500  -0.2611   0.01001   0.00547   0.1661   0.2721   0.7663
   8.000  -0.2046   0.00998   0.00532   0.1657   0.2367   0.7652
   8.500  -0.1480   0.01002   0.00522   0.1652   0.1985   0.7640
   9.000  -0.0914   0.01011   0.00517   0.1646   0.1635   0.7629
   9.500  -0.0347   0.01023   0.00516   0.1640   0.1312   0.7617
  10.000   0.0222   0.01038   0.00520   0.1632   0.1055   0.7606
  10.500   0.0790   0.01057   0.00529   0.1625   0.0844   0.7595
  11.000   0.1358   0.01084   0.00547   0.1617   0.0668   0.7585
  11.500   0.1927   0.01116   0.00574   0.1609   0.0553   0.7575
  12.000   0.2499   0.01159   0.00614   0.1600   0.0467   0.7566
  12.500   0.3071   0.01212   0.00665   0.1591   0.0399   0.7559
  13.000   0.3642   0.01276   0.00731   0.1580   0.0345   0.7553
  13.500   0.4213   0.01337   0.00795   0.1570   0.0311   0.7548
  14.000   0.4781   0.01410   0.00875   0.1558   0.0280   0.7544
  14.500   0.5327   0.01468   0.00935   0.1548   0.0252   0.7540
  15.000   0.5867   0.01513   0.00987   0.1539   0.0234   0.7536
  15.500   0.6404   0.01575   0.01052   0.1527   0.0215   0.7533
  16.000   0.6933   0.01665   0.01151   0.1513   0.0200   0.7529
  16.500   0.7464   0.01747   0.01241   0.1498   0.0189   0.7525
  17.000   0.7983   0.01873   0.01375   0.1477   0.0176   0.7520
  17.500   0.8488   0.02064   0.01581   0.1443   0.0166   0.7516
  18.000   0.8991   0.02255   0.01785   0.1404   0.0159   0.7512
  18.500   0.9454   0.02526   0.02069   0.1350   0.0152   0.7507
  19.000   0.9763   0.03006   0.02563   0.1268   0.0145   0.7501
  19.500   0.9657   0.03779   0.03353   0.1198   0.0141   0.7495
  20.000   0.9365   0.04816   0.04410   0.1122   0.0138   0.7488
  20.500   0.9161   0.05766   0.05376   0.1058   0.0137   0.7482
  21.000   0.8872   0.06870   0.06497   0.0989   0.0136   0.7477
  21.500   0.8546   0.08064   0.07706   0.0919   0.0136   0.7472
  22.000   0.8210   0.09315   0.08973   0.0848   0.0135   0.7467
  22.500   0.7912   0.10546   0.10217   0.0780   0.0134   0.7463
  23.000   0.7607   0.11837   0.11521   0.0711   0.0132   0.7459
  23.500   0.7348   0.13100   0.12795   0.0644   0.0130   0.7455
  24.000   0.7079   0.14449   0.14157   0.0573   0.0127   0.7452
