  
       XFOIL         Version 6.99
  
 Calculated polar for: NACA 0012                                       
  
 1 1 Reynolds number fixed          Mach number fixed         
  
 xtrf =   1.000 (top)        1.000 (bottom)  
 Mach =   0.000     Re =     2.332 e 6     Ncrit =   9.000
  
   alpha    CL        CD       CDp       CM     Top_Xtr  Bot_Xtr
  ------ -------- --------- --------- -------- -------- --------
 -15.000  -1.8752   0.05538   0.05052   0.0394   0.6980   0.0083
 -14.500  -1.8730   0.05103   0.04601   0.0428   0.6969   0.0085
 -14.000  -1.8648   0.04742   0.04227   0.0465   0.6958   0.0087
 -13.500  -1.8527   0.04430   0.03903   0.0502   0.6941   0.0088
 -13.000  -1.8399   0.04138   0.03598   0.0543   0.6924   0.0090
 -12.500  -1.8325   0.03804   0.03248   0.0592   0.6910   0.0095
 -12.000  -1.8153   0.03558   0.02992   0.0634   0.6896   0.0099
 -11.500  -1.7949   0.03346   0.02770   0.0675   0.6882   0.0103
 -11.000  -1.7698   0.03166   0.02582   0.0713   0.6863   0.0107
 -10.500  -1.7437   0.02999   0.02406   0.0751   0.6842   0.0111
 -10.000  -1.7136   0.02857   0.02256   0.0785   0.6822   0.0113
  -9.500  -1.6870   0.02684   0.02074   0.0825   0.6806   0.0122
  -9.000  -1.6548   0.02551   0.01937   0.0859   0.6789   0.0130
  -8.500  -1.6202   0.02435   0.01816   0.0890   0.6765   0.0137
  -8.000  -1.5839   0.02330   0.01705   0.0919   0.6737   0.0142
  -7.500  -1.5483   0.02211   0.01583   0.0951   0.6711   0.0157
  -7.000  -1.5099   0.02115   0.01484   0.0979   0.6686   0.0168
  -6.500  -1.4704   0.02025   0.01389   0.1005   0.6656   0.0179
  -6.000  -1.4305   0.01934   0.01299   0.1032   0.6619   0.0200
  -5.500  -1.3888   0.01856   0.01218   0.1056   0.6579   0.0215
  -5.000  -1.3472   0.01775   0.01136   0.1081   0.6533   0.0244
  -4.500  -1.3048   0.01700   0.01062   0.1105   0.6490   0.0272
  -4.000  -1.2615   0.01631   0.00994   0.1127   0.6435   0.0303
  -3.500  -1.2181   0.01561   0.00925   0.1150   0.6371   0.0357
  -3.000  -1.1746   0.01492   0.00861   0.1172   0.6311   0.0422
  -2.500  -1.1311   0.01425   0.00796   0.1195   0.6231   0.0506
  -2.000  -1.0876   0.01358   0.00736   0.1218   0.6157   0.0629
  -1.500  -1.0451   0.01287   0.00673   0.1243   0.6060   0.0800
  -1.000  -1.0035   0.01215   0.00612   0.1269   0.5969   0.1028
  -0.500  -0.9637   0.01137   0.00547   0.1299   0.5858   0.1342
  -0.000  -0.9250   0.01059   0.00483   0.1331   0.5741   0.1700
   0.500  -0.8902   0.00974   0.00416   0.1371   0.5620   0.2172
   1.000  -0.8617   0.00895   0.00355   0.1426   0.5487   0.2699
   1.500  -0.8310   0.00822   0.00304   0.1477   0.5337   0.3335
   2.000  -0.7951   0.00747   0.00256   0.1518   0.5175   0.4094
   2.500  -0.7617   0.00643   0.00197   0.1563   0.5012   0.5309
   3.000  -0.7283   0.00518   0.00138   0.1608   0.4837   0.7303
   3.500  -0.6698   0.00543   0.00156   0.1605   0.4624   0.7381
   4.000  -0.6119   0.00557   0.00164   0.1603   0.4398   0.7431
   5.000  -0.4944   0.00613   0.00210   0.1596   0.3873   0.7512
   5.500  -0.4353   0.00646   0.00235   0.1590   0.3573   0.7530
   6.000  -0.3754   0.00691   0.00272   0.1583   0.3254   0.7540
   6.500  -0.3187   0.00682   0.00251   0.1581   0.2919   0.7564
   7.000  -0.2550   0.00781   0.00348   0.1567   0.2562   0.7522
   7.500  -0.1954   0.00825   0.00383   0.1559   0.2211   0.7529
   8.000  -0.1381   0.00830   0.00376   0.1553   0.1865   0.7524
   8.500  -0.0806   0.00842   0.00375   0.1547   0.1529   0.7517
   9.000  -0.0232   0.00858   0.00379   0.1541   0.1233   0.7511
   9.500   0.0343   0.00878   0.00389   0.1534   0.0981   0.7504
  10.000   0.0917   0.00900   0.00402   0.1527   0.0790   0.7498
  10.500   0.1490   0.00924   0.00419   0.1519   0.0635   0.7491
  11.000   0.2063   0.00949   0.00439   0.1512   0.0525   0.7484
  11.500   0.2634   0.00977   0.00463   0.1504   0.0443   0.7478
  12.000   0.3203   0.01008   0.00491   0.1496   0.0378   0.7472
  12.500   0.3770   0.01043   0.00524   0.1488   0.0328   0.7466
  13.000   0.4333   0.01085   0.00564   0.1480   0.0284   0.7460
  13.500   0.4896   0.01121   0.00601   0.1472   0.0260   0.7454
  14.000   0.5454   0.01170   0.00651   0.1463   0.0234   0.7449
  14.500   0.6010   0.01219   0.00702   0.1454   0.0216   0.7443
  15.000   0.6559   0.01284   0.00769   0.1444   0.0196   0.7438
  15.500   0.7108   0.01341   0.00831   0.1434   0.0184   0.7433
  16.000   0.7643   0.01427   0.00920   0.1424   0.0168   0.7427
  16.500   0.8177   0.01509   0.01010   0.1412   0.0160   0.7423
  17.000   0.8706   0.01594   0.01102   0.1400   0.0153   0.7418
  17.500   0.9223   0.01704   0.01218   0.1385   0.0144   0.7413
  18.000   0.9713   0.01881   0.01408   0.1362   0.0133   0.7409
  18.500   1.0220   0.02027   0.01564   0.1337   0.0130   0.7405
  19.000   1.0701   0.02243   0.01793   0.1298   0.0125   0.7402
  19.500   1.1116   0.02576   0.02139   0.1239   0.0121   0.7398
  20.000   1.1256   0.03120   0.02698   0.1171   0.0117   0.7395
  20.500   1.1212   0.03812   0.03404   0.1113   0.0114   0.7393
  21.000   1.0985   0.04730   0.04339   0.1049   0.0112   0.7391
  21.500   1.0588   0.05925   0.05554   0.0972   0.0111   0.7389
  22.000   1.0051   0.07378   0.07028   0.0885   0.0111   0.7388
  22.500   0.9395   0.09081   0.08753   0.0789   0.0112   0.7386
  23.000   0.8783   0.10805   0.10495   0.0695   0.0112   0.7384
  23.500   0.8263   0.12463   0.12169   0.0606   0.0111   0.7382
  24.000   0.7871   0.13977   0.13696   0.0525   0.0108   0.7381
  24.500   0.7661   0.15207   0.14936   0.0457   0.0106   0.7379
  25.000   0.7509   0.16381   0.16119   0.0390   0.0105   0.7378
