  
       XFOIL         Version 6.99
  
 Calculated polar for: NACA 0012                                       
  
 1 1 Reynolds number fixed          Mach number fixed         
  
 xtrf =   1.000 (top)        1.000 (bottom)  
 Mach =   0.000     Re =     2.332 e 6     Ncrit =   9.000
  
   alpha    CL        CD       CDp       CM     Top_Xtr  Bot_Xtr
  ------ -------- --------- --------- -------- -------- --------
 -15.000  -0.4481   0.01319   0.00826  -0.1750   0.7432   0.0237
 -14.500  -0.3917   0.01275   0.00780  -0.1762   0.7438   0.0257
 -14.000  -0.3355   0.01233   0.00739  -0.1773   0.7446   0.0290
 -13.500  -0.2794   0.01210   0.00717  -0.1782   0.7456   0.0326
 -13.000  -0.2233   0.01194   0.00704  -0.1792   0.7466   0.0365
 -12.500  -0.1675   0.01179   0.00693  -0.1799   0.7477   0.0428
 -12.000  -0.1115   0.01167   0.00686  -0.1807   0.7486   0.0506
 -11.500  -0.0555   0.01157   0.00681  -0.1813   0.7494   0.0605
 -11.000   0.0004   0.01147   0.00679  -0.1820   0.7501   0.0758
 -10.500   0.0564   0.01143   0.00683  -0.1825   0.7509   0.0931
 -10.000   0.1120   0.01141   0.00692  -0.1830   0.7516   0.1170
  -9.500   0.1673   0.01150   0.00711  -0.1834   0.7523   0.1424
  -9.000   0.2204   0.01219   0.00791  -0.1835   0.7555   0.1736
  -8.500   0.2787   0.01195   0.00777  -0.1842   0.7557   0.2055
  -8.000   0.3370   0.01172   0.00765  -0.1849   0.7558   0.2394
  -7.500   0.3895   0.01219   0.00823  -0.1846   0.7553   0.2720
  -6.500   0.5204   0.00982   0.00586  -0.1876   0.7409   0.3369
  -6.000   0.5851   0.00871   0.00480  -0.1891   0.7385   0.3668
  -5.500   0.6477   0.00795   0.00407  -0.1902   0.7356   0.3921
  -5.000   0.7104   0.00715   0.00327  -0.1912   0.7324   0.4178
  -4.500   0.7729   0.00647   0.00263  -0.1923   0.7340   0.4403
  -4.000   0.8337   0.00595   0.00214  -0.1930   0.7332   0.4603
  -3.500   0.8918   0.00561   0.00184  -0.1932   0.7264   0.4796
  -3.000   0.8991   0.00769   0.00303  -0.1835   0.4755   0.4937
  -2.500   0.9082   0.00886   0.00390  -0.1740   0.3868   0.5071
  -2.000   0.9190   0.01047   0.00529  -0.1657   0.3200   0.5200
  -1.000   0.9643   0.01387   0.00832  -0.1548   0.2096   0.5449
  -0.500   0.9961   0.01509   0.00936  -0.1507   0.1651   0.5569
  -0.000   1.0308   0.01610   0.01020  -0.1471   0.1281   0.5669
   0.500   1.0688   0.01694   0.01092  -0.1439   0.0985   0.5784
   1.000   1.1088   0.01768   0.01155  -0.1410   0.0770   0.5873
   1.500   1.1495   0.01840   0.01218  -0.1382   0.0596   0.5967
   2.000   1.1916   0.01906   0.01279  -0.1357   0.0494   0.6044
   2.500   1.2336   0.01974   0.01343  -0.1332   0.0413   0.6125
   3.000   1.2756   0.02042   0.01408  -0.1307   0.0349   0.6183
   3.500   1.3175   0.02113   0.01477  -0.1282   0.0297   0.6254
   4.000   1.3596   0.02183   0.01546  -0.1257   0.0266   0.6313
   4.500   1.4010   0.02257   0.01620  -0.1231   0.0238   0.6358
   5.000   1.4417   0.02337   0.01700  -0.1205   0.0210   0.6411
   5.500   1.4826   0.02416   0.01782  -0.1179   0.0195   0.6456
   6.000   1.5219   0.02505   0.01870  -0.1152   0.0175   0.6495
   6.500   1.5609   0.02595   0.01964  -0.1124   0.0163   0.6531
   7.000   1.5990   0.02691   0.02064  -0.1095   0.0153   0.6563
   7.500   1.6342   0.02808   0.02185  -0.1063   0.0139   0.6594
   8.000   1.6690   0.02925   0.02308  -0.1031   0.0133   0.6625
   8.500   1.7032   0.03044   0.02431  -0.0999   0.0127   0.6649
   9.000   1.7357   0.03176   0.02569  -0.0966   0.0120   0.6670
   9.500   1.7633   0.03345   0.02745  -0.0926   0.0111   0.6688
  10.000   1.7901   0.03516   0.02926  -0.0888   0.0107   0.6708
  10.500   1.8174   0.03683   0.03101  -0.0851   0.0104   0.6729
  11.000   1.8416   0.03877   0.03304  -0.0812   0.0100   0.6753
  11.500   1.8626   0.04094   0.03530  -0.0771   0.0097   0.6769
  12.000   1.8811   0.04335   0.03780  -0.0729   0.0093   0.6779
  12.500   1.8916   0.04651   0.04110  -0.0681   0.0088   0.6790
  13.000   1.8960   0.05029   0.04505  -0.0632   0.0084   0.6802
  13.500   1.9078   0.05349   0.04838  -0.0593   0.0083   0.6817
  14.000   1.9145   0.05732   0.05234  -0.0555   0.0082   0.6832
  14.500   1.9172   0.06173   0.05690  -0.0518   0.0080   0.6848
  15.000   1.9147   0.06690   0.06222  -0.0486   0.0079   0.6861
  15.500   1.9050   0.07348   0.06899  -0.0464   0.0077   0.6869
  16.000   1.8887   0.08177   0.07748  -0.0461   0.0076   0.6875
  16.500   1.8629   0.09216   0.08811  -0.0479   0.0075   0.6881
  17.000   1.8256   0.10504   0.10124  -0.0524   0.0074   0.6887
  17.500   1.7741   0.12089   0.11739  -0.0601   0.0073   0.6890
  18.000   1.7084   0.14023   0.13706  -0.0717   0.0074   0.6891
  18.500   1.6294   0.16351   0.16069  -0.0881   0.0074   0.6890
  19.000   1.5479   0.18941   0.18692  -0.1084   0.0075   0.6887
  19.500   1.4919   0.21145   0.20920  -0.1266   0.0074   0.6887
  20.000   1.4563   0.22953   0.22746  -0.1420   0.0073   0.6889
  20.500   1.4375   0.24364   0.24169  -0.1541   0.0071   0.6894
  21.000   1.4238   0.25686   0.25500  -0.1655   0.0069   0.6900
  21.500   1.4093   0.27120   0.26946  -0.1781   0.0064   0.6906
  22.000   0.8291   0.30560   0.30434  -0.1369   0.0046   0.6819
  22.500   0.8306   0.31439   0.31315  -0.1394   0.0036   0.6830
  23.000   0.8344   0.31928   0.31806  -0.1414   0.0034   0.6844
  23.500   0.8380   0.32392   0.32271  -0.1433   0.0033   0.6859
  24.000   1.3750   0.36546   0.36398  -0.2474   0.0031   0.6913
  24.500   1.3896   0.37409   0.37262  -0.2538   0.0027   0.6922
  25.000   1.4011   0.37880   0.37734  -0.2587   0.0024   0.6932
