  
       XFOIL         Version 6.99
  
 Calculated polar for: NACA 0012                                       
  
 1 1 Reynolds number fixed          Mach number fixed         
  
 xtrf =   1.000 (top)        1.000 (bottom)  
 Mach =   0.000     Re =     2.332 e 6     Ncrit =   9.000
  
   alpha    CL        CD       CDp       CM     Top_Xtr  Bot_Xtr
  ------ -------- --------- --------- -------- -------- --------
 -15.000  -1.7241   0.03091   0.02628   0.0104   0.9999   0.0097
 -14.500  -1.7076   0.02847   0.02374   0.0138   0.9999   0.0100
 -14.000  -1.6875   0.02639   0.02155   0.0172   0.9999   0.0103
 -13.500  -1.6637   0.02461   0.01967   0.0206   0.9999   0.0105
 -13.000  -1.6371   0.02309   0.01805   0.0240   0.9999   0.0107
 -12.500  -1.6157   0.02120   0.01606   0.0283   0.9999   0.0115
 -12.000  -1.5862   0.01990   0.01470   0.0318   0.9999   0.0121
 -11.500  -1.5535   0.01882   0.01355   0.0351   0.9999   0.0127
 -11.000  -1.5185   0.01788   0.01255   0.0383   0.9999   0.0131
 -10.500  -1.4842   0.01687   0.01147   0.0418   0.9999   0.0138
 -10.000  -1.4480   0.01595   0.01053   0.0451   0.9999   0.0149
  -9.500  -1.4059   0.01520   0.00975   0.0474   0.9999   0.0158
  -9.000  -1.3616   0.01449   0.00899   0.0494   0.9999   0.0167
  -8.000  -1.2718   0.01372   0.00758   0.0532   0.7273   0.0196
  -7.500  -1.2248   0.01306   0.00689   0.0548   0.7205   0.0220
  -7.000  -1.1755   0.01257   0.00636   0.0560   0.7158   0.0239
  -6.500  -1.1264   0.01203   0.00581   0.0573   0.7103   0.0274
  -6.000  -1.0762   0.01152   0.00532   0.0584   0.7062   0.0313
  -5.500  -1.0254   0.01108   0.00487   0.0594   0.7016   0.0363
  -5.000  -0.9740   0.01060   0.00444   0.0603   0.6974   0.0431
  -4.500  -0.9221   0.01014   0.00403   0.0611   0.6922   0.0520
  -4.000  -0.8697   0.00969   0.00364   0.0619   0.6872   0.0635
  -3.500  -0.8175   0.00918   0.00325   0.0627   0.6810   0.0823
  -3.000  -0.7649   0.00871   0.00290   0.0634   0.6739   0.1060
  -2.500  -0.7124   0.00823   0.00255   0.0641   0.6645   0.1383
  -2.000  -0.6599   0.00775   0.00224   0.0649   0.6535   0.1793
  -1.500  -0.6074   0.00728   0.00196   0.0656   0.6400   0.2284
  -1.000  -0.5547   0.00685   0.00171   0.0663   0.6238   0.2831
  -0.500  -0.5020   0.00644   0.00149   0.0670   0.6045   0.3427
  -0.000  -0.4489   0.00607   0.00129   0.0676   0.5827   0.4058
   0.500  -0.3959   0.00570   0.00112   0.0682   0.5588   0.4771
   1.000  -0.3436   0.00528   0.00095   0.0689   0.5310   0.5666
   1.500  -0.2953   0.00455   0.00076   0.0705   0.5030   0.7415
   2.000  -0.2377   0.00464   0.00078   0.0703   0.4706   0.7595
   2.500  -0.1796   0.00478   0.00081   0.0701   0.4354   0.7690
   3.000  -0.1217   0.00492   0.00084   0.0698   0.3983   0.7761
   3.500  -0.0638   0.00510   0.00091   0.0695   0.3588   0.7817
   4.000  -0.0057   0.00532   0.00099   0.0691   0.3178   0.7854
   5.000   0.1097   0.00581   0.00121   0.0684   0.2343   0.7922
   5.500   0.1669   0.00610   0.00137   0.0680   0.1930   0.7956
   6.000   0.2241   0.00643   0.00156   0.0677   0.1557   0.7986
   6.500   0.2810   0.00681   0.00179   0.0674   0.1222   0.8019
   7.000   0.3379   0.00719   0.00205   0.0671   0.0960   0.8042
   7.500   0.3948   0.00754   0.00231   0.0667   0.0763   0.8044
   8.500   0.5078   0.00828   0.00292   0.0661   0.0499   0.8053
   9.000   0.5640   0.00866   0.00327   0.0658   0.0420   0.8060
   9.500   0.6198   0.00906   0.00365   0.0655   0.0358   0.8069
  10.000   0.6752   0.00950   0.00408   0.0653   0.0310   0.8079
  10.500   0.7301   0.00998   0.00456   0.0651   0.0269   0.8090
  11.000   0.7850   0.01042   0.00502   0.0649   0.0247   0.8103
  11.500   0.8387   0.01099   0.00561   0.0648   0.0221   0.8117
  12.000   0.8925   0.01150   0.00615   0.0647   0.0205   0.8133
  12.500   0.9448   0.01218   0.00686   0.0648   0.0185   0.8151
  13.000   0.9974   0.01276   0.00749   0.0647   0.0175   0.8171
  13.500   1.0483   0.01352   0.00828   0.0648   0.0161   0.8194
  14.500   1.1478   0.01507   0.00999   0.0652   0.0145   0.8278
  15.000   1.1956   0.01594   0.01093   0.0656   0.0136   0.8343
  15.500   1.2383   0.01727   0.01239   0.0663   0.0125   0.8439
  16.000   1.2832   0.01819   0.01343   0.0668   0.0123   0.8580
  16.500   1.3246   0.01924   0.01466   0.0677   0.0119   0.8832
  17.000   1.3603   0.02043   0.01609   0.0692   0.0114   0.9291
  17.500   1.3934   0.02199   0.01786   0.0704   0.0110   0.9924
  18.000   1.4093   0.02449   0.02049   0.0721   0.0106   1.0001
  18.500   1.4112   0.03048   0.02670   0.0678   0.0101   1.0001
  19.000   1.4071   0.03730   0.03372   0.0637   0.0100   1.0001
  19.500   1.3967   0.04504   0.04165   0.0594   0.0099   1.0001
  20.000   1.3675   0.05556   0.05239   0.0536   0.0099   1.0001
  20.500   1.3136   0.07014   0.06723   0.0457   0.0098   1.0001
  21.000   1.2250   0.09108   0.08850   0.0346   0.0099   1.0001
  21.500   1.1249   0.11543   0.11316   0.0217   0.0100   1.0001
  22.000   1.0591   0.13516   0.13311   0.0111   0.0100   1.0001
  22.500   1.0175   0.15138   0.14949   0.0020   0.0099   1.0001
  23.000   0.9924   0.16506   0.16330  -0.0060   0.0098   1.0001
  23.500   0.9691   0.17902   0.17739  -0.0145   0.0097   1.0001
  24.000   0.9533   0.19198   0.19046  -0.0227   0.0094   1.0001
  24.500   0.9390   0.20518   0.20376  -0.0311   0.0091   1.0001
