  
       XFOIL         Version 6.99
  
 Calculated polar for: NACA 0012                                       
  
 1 1 Reynolds number fixed          Mach number fixed         
  
 xtrf =   1.000 (top)        1.000 (bottom)  
 Mach =   0.000     Re =     2.332 e 6     Ncrit =   9.000
  
   alpha    CL        CD       CDp       CM     Top_Xtr  Bot_Xtr
  ------ -------- --------- --------- -------- -------- --------
 -15.000  -1.8620   0.05176   0.04684   0.0364   0.7033   0.0084
 -14.500  -1.8572   0.04774   0.04267   0.0398   0.7019   0.0086
 -14.000  -1.8487   0.04426   0.03907   0.0436   0.7005   0.0088
 -13.500  -1.8356   0.04134   0.03602   0.0474   0.6990   0.0090
 -13.000  -1.8218   0.03854   0.03308   0.0514   0.6974   0.0092
 -12.500  -1.8120   0.03549   0.02988   0.0561   0.6958   0.0097
 -12.000  -1.7941   0.03316   0.02746   0.0604   0.6944   0.0102
 -11.500  -1.7715   0.03121   0.02542   0.0643   0.6926   0.0106
 -11.000  -1.7462   0.02949   0.02362   0.0681   0.6905   0.0110
 -10.500  -1.7181   0.02795   0.02199   0.0717   0.6886   0.0113
 -10.000  -1.6880   0.02652   0.02047   0.0751   0.6870   0.0116
  -9.500  -1.6597   0.02492   0.01880   0.0789   0.6851   0.0126
  -9.000  -1.6262   0.02367   0.01751   0.0822   0.6826   0.0134
  -8.500  -1.5906   0.02258   0.01637   0.0852   0.6802   0.0141
  -8.000  -1.5547   0.02147   0.01520   0.0882   0.6781   0.0150
  -7.500  -1.5172   0.02043   0.01413   0.0911   0.6759   0.0163
  -7.000  -1.4779   0.01953   0.01320   0.0938   0.6728   0.0173
  -6.500  -1.4382   0.01860   0.01225   0.0964   0.6695   0.0189
  -6.000  -1.3970   0.01778   0.01142   0.0989   0.6662   0.0208
  -5.500  -1.3554   0.01699   0.01060   0.1014   0.6625   0.0229
  -5.000  -1.3127   0.01625   0.00987   0.1037   0.6582   0.0252
  -4.500  -1.2696   0.01551   0.00915   0.1060   0.6532   0.0288
  -4.000  -1.2260   0.01484   0.00847   0.1082   0.6479   0.0332
  -3.500  -1.1819   0.01418   0.00784   0.1104   0.6420   0.0384
  -3.000  -1.1377   0.01353   0.00722   0.1126   0.6347   0.0460
  -2.500  -1.0938   0.01288   0.00663   0.1148   0.6278   0.0561
  -2.000  -1.0497   0.01225   0.00606   0.1171   0.6189   0.0692
  -1.500  -1.0066   0.01159   0.00550   0.1195   0.6103   0.0886
  -1.000  -0.9643   0.01093   0.00494   0.1221   0.5993   0.1146
  -0.500  -0.9238   0.01023   0.00439   0.1251   0.5888   0.1482
  -0.000  -0.8856   0.00953   0.00385   0.1286   0.5767   0.1904
   0.500  -0.8527   0.00892   0.00341   0.1334   0.5633   0.2371
   1.000  -0.8150   0.00824   0.00295   0.1371   0.5482   0.2989
   1.500  -0.7753   0.00758   0.00253   0.1404   0.5330   0.3686
   2.000  -0.7353   0.00684   0.00210   0.1436   0.5158   0.4569
   2.500  -0.7098   0.00575   0.00218   0.1500   0.4991   0.7043
   3.000  -0.6534   0.00514   0.00131   0.1497   0.4776   0.7357
   3.500  -0.5951   0.00530   0.00140   0.1494   0.4548   0.7416
   4.000  -0.5370   0.00549   0.00154   0.1492   0.4303   0.7472
   4.500  -0.4783   0.00573   0.00171   0.1488   0.4031   0.7510
   5.000  -0.4195   0.00605   0.00193   0.1484   0.3727   0.7534
   5.500  -0.3612   0.00617   0.00196   0.1479   0.3419   0.7554
   6.000  -0.3033   0.00624   0.00194   0.1475   0.3086   0.7584
   6.500  -0.2446   0.00652   0.00215   0.1470   0.2737   0.7616
   7.000  -0.1858   0.00694   0.00250   0.1464   0.2368   0.7654
   7.500  -0.1275   0.00717   0.00263   0.1458   0.2018   0.7658
   8.000  -0.0694   0.00735   0.00268   0.1451   0.1677   0.7650
   8.500  -0.0115   0.00757   0.00277   0.1444   0.1359   0.7642
   9.000   0.0463   0.00781   0.00290   0.1437   0.1084   0.7634
   9.500   0.1040   0.00809   0.00307   0.1429   0.0848   0.7627
  10.000   0.1617   0.00835   0.00326   0.1422   0.0692   0.7619
  10.500   0.2191   0.00866   0.00350   0.1415   0.0563   0.7611
  11.000   0.2764   0.00899   0.00377   0.1407   0.0462   0.7604
  11.500   0.3335   0.00935   0.00409   0.1399   0.0390   0.7597
  12.000   0.3905   0.00971   0.00443   0.1392   0.0340   0.7590
  12.500   0.4473   0.01011   0.00483   0.1384   0.0303   0.7582
  13.000   0.5036   0.01058   0.00531   0.1376   0.0269   0.7574
  13.500   0.5596   0.01112   0.00585   0.1368   0.0239   0.7566
  14.000   0.6154   0.01165   0.00642   0.1360   0.0222   0.7558
  14.500   0.6706   0.01233   0.00713   0.1351   0.0202   0.7548
  15.000   0.7255   0.01304   0.00790   0.1343   0.0187   0.7539
  15.500   0.7794   0.01364   0.00854   0.1334   0.0175   0.7538
  16.000   0.8313   0.01460   0.00956   0.1325   0.0159   0.7536
  16.500   0.8843   0.01528   0.01031   0.1315   0.0154   0.7534
  17.000   0.9360   0.01614   0.01123   0.1305   0.0147   0.7532
  17.500   0.9861   0.01724   0.01239   0.1292   0.0138   0.7530
  18.000   1.0330   0.01897   0.01424   0.1273   0.0128   0.7527
  18.500   1.0817   0.02047   0.01585   0.1250   0.0126   0.7525
  19.000   1.1275   0.02272   0.01822   0.1212   0.0121   0.7522
  19.500   1.1647   0.02645   0.02209   0.1149   0.0117   0.7519
  20.000   1.1707   0.03233   0.02811   0.1087   0.0114   0.7517
  20.500   1.1636   0.03956   0.03548   0.1033   0.0112   0.7514
  21.000   1.1389   0.04909   0.04519   0.0969   0.0110   0.7512
  21.500   1.0972   0.06144   0.05775   0.0893   0.0110   0.7510
  22.000   1.0387   0.07683   0.07336   0.0803   0.0110   0.7508
  22.500   0.9658   0.09529   0.09206   0.0701   0.0111   0.7506
  23.000   0.8998   0.11361   0.11057   0.0603   0.0111   0.7505
  23.500   0.8513   0.12989   0.12701   0.0516   0.0110   0.7504
  24.000   0.8129   0.14526   0.14250   0.0433   0.0107   0.7502
  24.500   0.7888   0.15842   0.15575   0.0359   0.0103   0.7500
  25.000   0.7755   0.17005   0.16747   0.0292   0.0102   0.7498
