  
       XFOIL         Version 6.99
  
 Calculated polar for: NACA 0012                                       
  
 1 1 Reynolds number fixed          Mach number fixed         
  
 xtrf =   1.000 (top)        1.000 (bottom)  
 Mach =   0.000     Re =     2.332 e 6     Ncrit =   9.000
  
   alpha    CL        CD       CDp       CM     Top_Xtr  Bot_Xtr
  ------ -------- --------- --------- -------- -------- --------
 -15.000  -0.2100   0.01799   0.01362  -0.2089   0.7586   0.0296
 -14.500  -0.1575   0.01791   0.01356  -0.2096   0.7588   0.0336
 -14.000  -0.1055   0.01793   0.01360  -0.2100   0.7590   0.0384
 -13.500  -0.0550   0.01808   0.01376  -0.2100   0.7592   0.0439
 -13.000  -0.0066   0.01834   0.01406  -0.2096   0.7594   0.0512
 -12.500   0.0389   0.01876   0.01453  -0.2087   0.7596   0.0609
 -12.000   0.0811   0.01939   0.01523  -0.2072   0.7598   0.0725
 -11.500   0.1130   0.02051   0.01642  -0.2039   0.7600   0.0851
 -11.000   0.0885   0.02437   0.02031  -0.1920   0.7598   0.0893
 -10.500   0.1172   0.02597   0.02195  -0.1887   0.7603   0.1068
 -10.000   0.1510   0.02722   0.02328  -0.1861   0.7610   0.1287
  -9.500   0.1886   0.02831   0.02442  -0.1839   0.7619   0.1492
  -9.000   0.2302   0.02921   0.02542  -0.1823   0.7631   0.1786
  -8.500   0.2753   0.03002   0.02632  -0.1811   0.7645   0.2079
  -8.000   0.3247   0.03068   0.02708  -0.1805   0.7658   0.2409
  -7.500   0.3717   0.03091   0.02739  -0.1793   0.7638   0.2695
  -7.000   0.4294   0.03072   0.02729  -0.1795   0.7614   0.3003
  -6.500   0.5098   0.02945   0.02611  -0.1828   0.7590   0.3349
  -6.000   0.8633   0.00997   0.00625  -0.2288   0.7317   0.4051
  -5.500   0.9223   0.00958   0.00590  -0.2293   0.7291   0.4243
  -5.000   0.9944   0.00776   0.00406  -0.2321   0.7261   0.4453
  -4.500   1.0619   0.00663   0.00291  -0.2341   0.7276   0.4632
  -4.000   1.0446   0.00870   0.00430  -0.2193   0.5236   0.4745
  -3.500   0.9985   0.01329   0.00871  -0.2016   0.4464   0.4820
  -3.000   0.9679   0.01940   0.01469  -0.1891   0.3863   0.4916
  -2.500   0.9691   0.02212   0.01713  -0.1804   0.3168   0.5020
  -2.000   0.9925   0.02352   0.01830  -0.1750   0.2604   0.5137
  -1.500   1.0228   0.02454   0.01908  -0.1707   0.2030   0.5263
  -1.000   1.0584   0.02533   0.01965  -0.1671   0.1565   0.5371
  -0.500   1.0967   0.02599   0.02013  -0.1639   0.1188   0.5480
  -0.000   1.1368   0.02657   0.02058  -0.1610   0.0912   0.5580
   0.500   1.1781   0.02710   0.02100  -0.1582   0.0710   0.5669
   1.000   1.2204   0.02761   0.02144  -0.1556   0.0561   0.5761
   1.500   1.2631   0.02813   0.02190  -0.1531   0.0462   0.5840
   2.000   1.3056   0.02867   0.02239  -0.1506   0.0387   0.5917
   2.500   1.3475   0.02925   0.02294  -0.1480   0.0328   0.5988
   3.000   1.3890   0.02986   0.02352  -0.1453   0.0280   0.6040
   3.500   1.4307   0.03049   0.02415  -0.1427   0.0249   0.6111
   4.000   1.4718   0.03116   0.02484  -0.1400   0.0224   0.6166
   4.500   1.5119   0.03188   0.02553  -0.1372   0.0200   0.6207
   5.000   1.5519   0.03263   0.02632  -0.1345   0.0185   0.6263
   5.500   1.5907   0.03345   0.02716  -0.1316   0.0169   0.6307
   6.000   1.6284   0.03436   0.02809  -0.1285   0.0154   0.6348
   6.500   1.6658   0.03529   0.02906  -0.1255   0.0146   0.6381
   7.000   1.7007   0.03638   0.03019  -0.1222   0.0135   0.6418
   7.500   1.7330   0.03767   0.03155  -0.1185   0.0125   0.6449
   8.000   1.7660   0.03893   0.03287  -0.1152   0.0121   0.6480
   8.500   1.7976   0.04030   0.03429  -0.1116   0.0115   0.6509
   9.000   1.8267   0.04181   0.03586  -0.1079   0.0108   0.6533
   9.500   1.8501   0.04380   0.03795  -0.1035   0.0099   0.6554
  10.000   1.8752   0.04566   0.03990  -0.0995   0.0097   0.6572
  10.500   1.8978   0.04775   0.04209  -0.0954   0.0095   0.6591
  11.000   1.9189   0.04993   0.04437  -0.0912   0.0092   0.6614
  11.500   1.9364   0.05248   0.04702  -0.0869   0.0088   0.6636
  12.000   1.9495   0.05546   0.05011  -0.0823   0.0085   0.6653
  12.500   1.9589   0.05886   0.05364  -0.0778   0.0082   0.6665
  13.000   1.9564   0.06349   0.05845  -0.0727   0.0078   0.6674
  13.500   1.9529   0.06848   0.06362  -0.0681   0.0076   0.6683
  14.000   1.9525   0.07337   0.06866  -0.0645   0.0075   0.6692
  14.500   1.9463   0.07923   0.07470  -0.0614   0.0074   0.6703
  15.000   1.9326   0.08666   0.08233  -0.0597   0.0073   0.6715
  15.500   1.9130   0.09566   0.09155  -0.0599   0.0072   0.6727
  16.000   1.8850   0.10657   0.10270  -0.0624   0.0072   0.6737
  16.500   1.8468   0.11962   0.11602  -0.0677   0.0071   0.6746
  17.000   1.7994   0.13502   0.13170  -0.0762   0.0071   0.6752
  17.500   1.7393   0.15368   0.15068  -0.0888   0.0071   0.6755
  18.000   1.6654   0.17655   0.17388  -0.1064   0.0071   0.6753
  18.500   1.5921   0.20130   0.19896  -0.1272   0.0071   0.6750
  19.000   1.5448   0.22134   0.21923  -0.1448   0.0071   0.6751
  19.500   1.5125   0.23859   0.23665  -0.1602   0.0070   0.6755
  20.000   1.4951   0.25236   0.25055  -0.1725   0.0068   0.6760
  20.500   1.4823   0.26526   0.26355  -0.1841   0.0066   0.6763
  21.000   1.4722   0.27783   0.27622  -0.1955   0.0063   0.6766
  21.500   1.4633   0.29063   0.28910  -0.2072   0.0059   0.6769
