  
       XFOIL         Version 6.99
  
 Calculated polar for: NACA 0012                                       
  
 1 1 Reynolds number fixed          Mach number fixed         
  
 xtrf =   1.000 (top)        1.000 (bottom)  
 Mach =   0.000     Re =     1.521 e 6     Ncrit =   9.000
  
   alpha    CL        CD       CDp       CM     Top_Xtr  Bot_Xtr
  ------ -------- --------- --------- -------- -------- --------
 -15.000  -0.7884   0.01510   0.00971  -0.1241   0.7697   0.0200
 -14.500  -0.7354   0.01430   0.00885  -0.1249   0.7702   0.0215
 -14.000  -0.6817   0.01353   0.00799  -0.1256   0.7709   0.0230
 -13.500  -0.6277   0.01275   0.00718  -0.1264   0.7717   0.0254
 -13.000  -0.5727   0.01212   0.00650  -0.1271   0.7725   0.0278
 -12.500  -0.5173   0.01155   0.00591  -0.1278   0.7733   0.0310
 -12.000  -0.4617   0.01098   0.00534  -0.1285   0.7741   0.0352
 -11.500  -0.4054   0.01051   0.00487  -0.1292   0.7749   0.0406
 -11.000  -0.3489   0.01009   0.00446  -0.1299   0.7758   0.0473
 -10.500  -0.2922   0.00968   0.00411  -0.1306   0.7766   0.0569
 -10.000  -0.2352   0.00933   0.00381  -0.1313   0.7775   0.0693
  -9.500  -0.1781   0.00899   0.00355  -0.1320   0.7784   0.0871
  -9.000  -0.1208   0.00868   0.00334  -0.1327   0.7793   0.1094
  -8.500  -0.0634   0.00839   0.00317  -0.1334   0.7803   0.1382
  -8.000  -0.0058   0.00812   0.00304  -0.1340   0.7813   0.1738
  -7.500   0.0519   0.00789   0.00295  -0.1347   0.7822   0.2117
  -7.000   0.1097   0.00774   0.00292  -0.1353   0.7832   0.2494
  -6.500   0.1677   0.00755   0.00288  -0.1359   0.7834   0.2888
  -6.000   0.2261   0.00717   0.00259  -0.1364   0.7797   0.3264
  -5.500   0.2846   0.00687   0.00236  -0.1368   0.7761   0.3616
  -5.000   0.3430   0.00670   0.00224  -0.1372   0.7729   0.3943
  -4.500   0.4005   0.00673   0.00236  -0.1375   0.7696   0.4245
  -4.000   0.4591   0.00643   0.00216  -0.1378   0.7672   0.4524
  -3.500   0.5174   0.00618   0.00199  -0.1381   0.7628   0.4784
  -3.000   0.5755   0.00598   0.00182  -0.1382   0.7570   0.5021
  -2.500   0.6332   0.00582   0.00174  -0.1383   0.7504   0.5233
  -1.500   0.7255   0.00667   0.00203  -0.1339   0.5484   0.5588
  -1.000   0.7608   0.00773   0.00262  -0.1298   0.4262   0.5741
  -0.500   0.7995   0.00850   0.00309  -0.1263   0.3436   0.5879
  -0.000   0.8379   0.00924   0.00356  -0.1228   0.2755   0.6003
   0.500   0.8742   0.00998   0.00405  -0.1188   0.2165   0.6114
   1.000   0.9092   0.01070   0.00458  -0.1146   0.1688   0.6220
   1.500   0.9499   0.01144   0.00514  -0.1117   0.1287   0.6311
   2.000   0.9919   0.01219   0.00574  -0.1090   0.0975   0.6397
   2.500   1.0357   0.01287   0.00632  -0.1067   0.0765   0.6469
   3.000   1.0792   0.01359   0.00696  -0.1044   0.0599   0.6534
   3.500   1.1236   0.01428   0.00758  -0.1022   0.0496   0.6595
   4.000   1.1675   0.01499   0.00827  -0.1000   0.0414   0.6641
   4.500   1.2110   0.01574   0.00899  -0.0977   0.0356   0.6690
   5.000   1.2539   0.01654   0.00976  -0.0954   0.0306   0.6734
   5.500   1.2965   0.01731   0.01055  -0.0931   0.0276   0.6765
   6.000   1.3383   0.01816   0.01143  -0.0907   0.0249   0.6802
   6.500   1.3789   0.01908   0.01234  -0.0882   0.0225   0.6841
   7.000   1.4186   0.02000   0.01333  -0.0855   0.0208   0.6867
   7.500   1.4576   0.02098   0.01434  -0.0829   0.0192   0.6900
   8.000   1.4927   0.02224   0.01565  -0.0797   0.0177   0.6933
   8.500   1.5296   0.02327   0.01678  -0.0769   0.0169   0.6960
   9.000   1.5638   0.02449   0.01805  -0.0738   0.0158   0.6991
   9.500   1.5916   0.02621   0.01985  -0.0700   0.0146   0.7018
  10.000   1.6232   0.02754   0.02129  -0.0668   0.0141   0.7045
  10.500   1.6519   0.02909   0.02294  -0.0633   0.0135   0.7073
  11.000   1.6774   0.03086   0.02482  -0.0596   0.0129   0.7096
  11.500   1.6972   0.03306   0.02714  -0.0555   0.0123   0.7122
  12.000   1.7066   0.03612   0.03038  -0.0505   0.0117   0.7143
  12.500   1.7249   0.03850   0.03290  -0.0468   0.0115   0.7163
  13.000   1.7388   0.04134   0.03591  -0.0429   0.0112   0.7188
  13.500   1.7483   0.04468   0.03941  -0.0391   0.0109   0.7210
  14.000   1.7549   0.04844   0.04333  -0.0356   0.0106   0.7229
  15.000   1.7508   0.05865   0.05389  -0.0300   0.0100   0.7272
  15.500   1.7330   0.06675   0.06223  -0.0293   0.0098   0.7293
  16.000   1.7003   0.07846   0.07423  -0.0320   0.0096   0.7307
  16.500   1.6528   0.09379   0.08988  -0.0382   0.0095   0.7317
  17.000   1.5948   0.11157   0.10798  -0.0469   0.0095   0.7324
  17.500   1.5336   0.13068   0.12741  -0.0574   0.0095   0.7328
  18.000   1.4750   0.15016   0.14716  -0.0694   0.0095   0.7331
  18.500   1.4248   0.16904   0.16627  -0.0821   0.0095   0.7336
  19.000   1.3852   0.18644   0.18387  -0.0946   0.0093   0.7345
  20.500   1.3155   0.23249   0.23049  -0.1300   0.0090   0.7475
  22.500   0.7755   0.29066   0.28915  -0.1163   0.0059   0.7262
  23.000   0.7809   0.29555   0.29407  -0.1185   0.0056   0.7289
  23.500   0.7864   0.29995   0.29850  -0.1205   0.0054   0.7315
  24.000   0.7890   0.30713   0.30570  -0.1228   0.0053   0.7338
  25.000   0.7944   0.32263   0.32128  -0.1278   0.0041   0.7444
