  
       XFOIL         Version 6.99
  
 Calculated polar for: NACA 0012                                       
  
 1 1 Reynolds number fixed          Mach number fixed         
  
 xtrf =   1.000 (top)        1.000 (bottom)  
 Mach =   0.000     Re =     1.521 e 6     Ncrit =   9.000
  
   alpha    CL        CD       CDp       CM     Top_Xtr  Bot_Xtr
  ------ -------- --------- --------- -------- -------- --------
 -15.000  -1.0490   0.01739   0.01210  -0.0855   0.7993   0.0164
 -14.500  -1.0038   0.01599   0.01059  -0.0854   0.7991   0.0177
 -14.000  -0.9541   0.01509   0.00963  -0.0855   0.7991   0.0189
 -13.500  -0.9026   0.01437   0.00883  -0.0856   0.7991   0.0198
 -13.000  -0.8522   0.01338   0.00778  -0.0857   0.7991   0.0218
 -12.500  -0.7990   0.01277   0.00712  -0.0860   0.7992   0.0235
 -12.000  -0.7463   0.01202   0.00634  -0.0862   0.7994   0.0260
 -11.500  -0.6917   0.01151   0.00578  -0.0865   0.7996   0.0282
 -11.000  -0.6375   0.01088   0.00515  -0.0868   0.7999   0.0323
 -10.500  -0.5825   0.01035   0.00462  -0.0871   0.8002   0.0368
 -10.000  -0.5269   0.00988   0.00415  -0.0875   0.8005   0.0426
  -9.500  -0.4710   0.00943   0.00373  -0.0879   0.8009   0.0507
  -9.000  -0.4148   0.00901   0.00335  -0.0883   0.8012   0.0614
  -8.500  -0.3582   0.00862   0.00301  -0.0888   0.8017   0.0759
  -8.000  -0.3016   0.00822   0.00272  -0.0892   0.8021   0.0968
  -7.500  -0.2447   0.00784   0.00246  -0.0897   0.8025   0.1240
  -7.000  -0.1875   0.00750   0.00224  -0.0902   0.8029   0.1561
  -6.500  -0.1302   0.00716   0.00206  -0.0907   0.8033   0.1970
  -6.000  -0.0728   0.00681   0.00186  -0.0911   0.8016   0.2375
  -5.500  -0.0154   0.00647   0.00166  -0.0914   0.7982   0.2809
  -5.000   0.0423   0.00621   0.00153  -0.0918   0.7955   0.3222
  -4.500   0.1001   0.00598   0.00142  -0.0922   0.7928   0.3635
  -4.000   0.1580   0.00584   0.00137  -0.0925   0.7892   0.4011
  -3.500   0.2161   0.00570   0.00134  -0.0928   0.7859   0.4363
  -3.000   0.2741   0.00552   0.00128  -0.0931   0.7819   0.4697
  -2.500   0.3321   0.00537   0.00123  -0.0933   0.7763   0.5002
  -2.000   0.3898   0.00529   0.00121  -0.0934   0.7684   0.5277
  -1.500   0.4473   0.00518   0.00118  -0.0935   0.7567   0.5529
  -1.000   0.5046   0.00511   0.00116  -0.0935   0.7303   0.5747
  -0.500   0.5427   0.00638   0.00161  -0.0899   0.5070   0.5934
  -0.000   0.5911   0.00699   0.00191  -0.0884   0.4184   0.6106
   0.500   0.6405   0.00754   0.00220  -0.0870   0.3455   0.6258
   1.000   0.6896   0.00812   0.00254  -0.0856   0.2790   0.6393
   1.500   0.7386   0.00871   0.00290  -0.0842   0.2198   0.6502
   2.000   0.7877   0.00933   0.00328  -0.0829   0.1685   0.6598
   2.500   0.8371   0.00994   0.00371  -0.0815   0.1278   0.6680
   3.000   0.8864   0.01055   0.00416  -0.0802   0.0961   0.6747
   3.500   0.9360   0.01114   0.00463  -0.0789   0.0747   0.6808
   4.000   0.9855   0.01171   0.00512  -0.0776   0.0596   0.6860
   4.500   1.0345   0.01228   0.00563  -0.0762   0.0485   0.6909
   5.000   1.0829   0.01287   0.00617  -0.0747   0.0407   0.6956
   5.500   1.1308   0.01343   0.00673  -0.0732   0.0351   0.7006
   6.000   1.1777   0.01402   0.00732  -0.0715   0.0307   0.7051
   6.500   1.2228   0.01470   0.00801  -0.0695   0.0269   0.7095
   7.000   1.2674   0.01525   0.00862  -0.0674   0.0247   0.7142
   7.500   1.3069   0.01599   0.00941  -0.0644   0.0223   0.7188
   8.000   1.3488   0.01669   0.01017  -0.0620   0.0208   0.7233
   8.500   1.3864   0.01773   0.01129  -0.0590   0.0188   0.7292
   9.500   1.4637   0.01941   0.01320  -0.0536   0.0168   0.7541
  10.000   1.4909   0.02039   0.01471  -0.0491   0.0155   0.9999
  10.500   1.5252   0.02151   0.01591  -0.0460   0.0150   0.9999
  11.000   1.5566   0.02281   0.01731  -0.0428   0.0144   0.9999
  11.500   1.5852   0.02432   0.01890  -0.0393   0.0137   0.9999
  12.000   1.6072   0.02632   0.02099  -0.0353   0.0130   0.9999
  12.500   1.6236   0.02874   0.02357  -0.0310   0.0125   0.9999
  13.000   1.6449   0.03084   0.02580  -0.0275   0.0122   0.9999
  13.500   1.6627   0.03327   0.02835  -0.0240   0.0118   0.9999
  14.000   1.6768   0.03604   0.03126  -0.0206   0.0114   0.9999
  14.500   1.6853   0.03941   0.03477  -0.0172   0.0110   0.9999
  15.000   1.6870   0.04361   0.03912  -0.0141   0.0107   0.9999
  15.500   1.6768   0.04948   0.04518  -0.0116   0.0104   0.9999
  16.000   1.6498   0.05855   0.05453  -0.0117   0.0101   0.9999
  16.500   1.6204   0.06985   0.06611  -0.0152   0.0100   0.9999
  17.000   1.5867   0.08282   0.07936  -0.0207   0.0100   0.9999
  17.500   1.5297   0.10015   0.09701  -0.0290   0.0100   0.9999
  18.000   1.4582   0.12066   0.11784  -0.0397   0.0100   0.9999
  18.500   1.3943   0.14084   0.13830  -0.0512   0.0100   0.9999
  19.000   1.3485   0.15833   0.15600  -0.0620   0.0100   0.9999
  19.500   1.3151   0.17414   0.17201  -0.0725   0.0099   0.9999
  20.000   1.2871   0.18939   0.18743  -0.0831   0.0099   0.9999
  20.500   1.2657   0.20378   0.20198  -0.0934   0.0097   0.9999
  21.000   1.2385   0.22092   0.21931  -0.1061   0.0095   0.9999
