  
       XFOIL         Version 6.99
  
 Calculated polar for: NACA 2412                                       
  
 1 1 Reynolds number fixed          Mach number fixed         
  
 xtrf =   1.000 (top)        1.000 (bottom)  
 Mach =   0.000     Re =     1.521 e 6     Ncrit =   9.000
  
   alpha    CL        CD       CDp       CM     Top_Xtr  Bot_Xtr
  ------ -------- --------- --------- -------- -------- --------
  -5.000   0.4334   0.00685   0.00210  -0.1668   0.7826   0.2429
  -4.500   0.4919   0.00665   0.00201  -0.1673   0.7807   0.2855
  -4.000   0.5502   0.00648   0.00195  -0.1678   0.7784   0.3302
  -3.500   0.6083   0.00646   0.00205  -0.1682   0.7750   0.3766
  -3.000   0.6662   0.00617   0.00194  -0.1686   0.7729   0.4317
  -2.500   0.7240   0.00595   0.00187  -0.1688   0.7691   0.4859
  -2.000   0.7816   0.00576   0.00178  -0.1690   0.7634   0.5287
  -1.500   0.8387   0.00566   0.00176  -0.1690   0.7562   0.5609
  -1.000   0.8949   0.00554   0.00170  -0.1688   0.7436   0.5865
  -0.500   0.9262   0.00659   0.00219  -0.1636   0.5838   0.6044
   0.000   0.9646   0.00742   0.00272  -0.1600   0.5085   0.6198
   0.500   1.0059   0.00806   0.00315  -0.1570   0.4582   0.6330
   1.000   1.0470   0.00864   0.00358  -0.1539   0.4163   0.6443
   1.500   1.0815   0.00928   0.00406  -0.1495   0.3729   0.6531
   2.000   1.1133   0.01012   0.00468  -0.1447   0.3223   0.6613
   2.500   1.1468   0.01110   0.00542  -0.1406   0.2686   0.6674
   3.000   1.1798   0.01222   0.00625  -0.1364   0.2130   0.6738
   3.500   1.2147   0.01332   0.00709  -0.1328   0.1620   0.6786
   4.000   1.2505   0.01443   0.00797  -0.1294   0.1193   0.6846
   4.500   1.2882   0.01544   0.00882  -0.1263   0.0893   0.6886
   5.000   1.3265   0.01642   0.00968  -0.1234   0.0678   0.6928
   5.500   1.3645   0.01742   0.01058  -0.1206   0.0529   0.6966
   6.000   1.4030   0.01836   0.01149  -0.1179   0.0432   0.7005
   6.500   1.4409   0.01934   0.01246  -0.1151   0.0363   0.7042
   7.000   1.4774   0.02038   0.01352  -0.1122   0.0310   0.7079
   8.000   1.5485   0.02259   0.01581  -0.1064   0.0245   0.7148
   8.500   1.5799   0.02398   0.01724  -0.1030   0.0218   0.7183
   9.000   1.6131   0.02524   0.01857  -0.1000   0.0203   0.7220
   9.500   1.6403   0.02691   0.02031  -0.0963   0.0182   0.7258
  10.000   1.6703   0.02839   0.02189  -0.0931   0.0173   0.7302
  10.500   1.6962   0.03016   0.02375  -0.0895   0.0161   0.7362
  11.500   1.7376   0.03401   0.02824  -0.0813   0.0143   0.9998
  12.000   1.7583   0.03630   0.03063  -0.0777   0.0136   0.9998
  12.500   1.7749   0.03898   0.03340  -0.0739   0.0129   0.9998
  13.000   1.7808   0.04273   0.03728  -0.0695   0.0120   0.9998
  13.500   1.7943   0.04590   0.04059  -0.0660   0.0117   0.9998
  14.000   1.8042   0.04957   0.04440  -0.0628   0.0114   0.9998
  14.500   1.8099   0.05389   0.04886  -0.0598   0.0110   0.9998
  15.000   1.8109   0.05898   0.05411  -0.0573   0.0106   0.9998
