  
       XFOIL         Version 6.99
  
 Calculated polar for: NACA 2412                                       
  
 1 1 Reynolds number fixed          Mach number fixed         
  
 xtrf =   1.000 (top)        1.000 (bottom)  
 Mach =   0.000     Re =     1.521 e 6     Ncrit =   9.000
  
   alpha    CL        CD       CDp       CM     Top_Xtr  Bot_Xtr
  ------ -------- --------- --------- -------- -------- --------
  -5.000   0.2831   0.00676   0.00181  -0.1440   0.7913   0.1954
  -4.500   0.3413   0.00651   0.00170  -0.1445   0.7898   0.2356
  -4.000   0.3996   0.00628   0.00162  -0.1450   0.7878   0.2804
  -3.500   0.4577   0.00607   0.00154  -0.1454   0.7848   0.3267
  -3.000   0.5158   0.00587   0.00147  -0.1458   0.7812   0.3780
  -2.500   0.5737   0.00571   0.00147  -0.1461   0.7763   0.4388
  -1.500   0.6884   0.00536   0.00142  -0.1464   0.7633   0.5456
  -1.000   0.7455   0.00527   0.00143  -0.1465   0.7522   0.5807
  -0.500   0.7912   0.00570   0.00151  -0.1441   0.6407   0.6053
   0.000   0.8326   0.00659   0.00204  -0.1412   0.5477   0.6248
   0.500   0.8797   0.00714   0.00238  -0.1393   0.4934   0.6408
   1.000   0.9276   0.00763   0.00271  -0.1376   0.4495   0.6539
   1.500   0.9747   0.00814   0.00307  -0.1358   0.4095   0.6641
   2.000   1.0202   0.00870   0.00345  -0.1336   0.3638   0.6721
   2.500   1.0624   0.00942   0.00392  -0.1309   0.3117   0.6797
   3.000   1.1026   0.01019   0.00445  -0.1279   0.2571   0.6852
   3.500   1.1368   0.01105   0.00503  -0.1236   0.2038   0.6918
   4.000   1.1737   0.01198   0.00570  -0.1201   0.1535   0.6988
   4.500   1.2127   0.01286   0.00639  -0.1172   0.1133   0.7040
   5.000   1.2524   0.01372   0.00710  -0.1144   0.0843   0.7087
   5.500   1.2923   0.01455   0.00784  -0.1117   0.0643   0.7136
   6.000   1.3325   0.01536   0.00861  -0.1091   0.0516   0.7184
   6.500   1.3718   0.01621   0.00945  -0.1064   0.0421   0.7240
   7.000   1.4106   0.01709   0.01035  -0.1037   0.0357   0.7301
   7.500   1.4483   0.01803   0.01133  -0.1009   0.0307   0.7397
   8.000   1.4810   0.01863   0.01243  -0.0973   0.0269   0.9999
   8.500   1.5165   0.01974   0.01355  -0.0943   0.0243   0.9999
   9.000   1.5498   0.02098   0.01484  -0.0911   0.0220   0.9999
   9.500   1.5820   0.02230   0.01619  -0.0879   0.0200   0.9999
  10.000   1.6113   0.02381   0.01776  -0.0845   0.0185   0.9999
  10.500   1.6406   0.02533   0.01935  -0.0812   0.0173   0.9999
  11.000   1.6641   0.02728   0.02135  -0.0773   0.0159   0.9999
  11.500   1.6878   0.02922   0.02340  -0.0737   0.0151   0.9999
  12.000   1.7113   0.03119   0.02546  -0.0702   0.0143   0.9999
  12.500   1.7301   0.03355   0.02790  -0.0664   0.0135   0.9999
  13.000   1.7382   0.03690   0.03139  -0.0620   0.0126   0.9999
  13.500   1.7550   0.03964   0.03425  -0.0587   0.0123   0.9999
  14.000   1.7674   0.04290   0.03764  -0.0554   0.0119   0.9999
  14.500   1.7759   0.04669   0.04157  -0.0524   0.0115   0.9999
  15.000   1.7794   0.05121   0.04623  -0.0496   0.0111   0.9999
