  
       XFOIL         Version 6.99
  
 Calculated polar for: NACA 2412                                       
  
 1 1 Reynolds number fixed          Mach number fixed         
  
 xtrf =   1.000 (top)        1.000 (bottom)  
 Mach =   0.000     Re =     2.332 e 6     Ncrit =   9.000
  
   alpha    CL        CD       CDp       CM     Top_Xtr  Bot_Xtr
  ------ -------- --------- --------- -------- -------- --------
  -5.000  -0.5448   0.00857   0.00285  -0.0190   0.7168   0.0384
  -4.500  -0.4892   0.00825   0.00256  -0.0189   0.7090   0.0452
  -4.000  -0.4335   0.00799   0.00230  -0.0187   0.7010   0.0536
  -3.500  -0.3773   0.00765   0.00203  -0.0187   0.6924   0.0669
  -3.000  -0.3211   0.00735   0.00180  -0.0186   0.6817   0.0833
  -2.500  -0.2648   0.00707   0.00158  -0.0186   0.6680   0.1056
  -2.000  -0.2085   0.00680   0.00140  -0.0185   0.6510   0.1340
  -1.500  -0.1523   0.00657   0.00124  -0.0185   0.6310   0.1694
  -1.000  -0.0964   0.00635   0.00111  -0.0185   0.6087   0.2134
  -0.500  -0.0402   0.00615   0.00101  -0.0184   0.5862   0.2637
   0.000   0.0157   0.00597   0.00094  -0.0184   0.5619   0.3236
   0.500   0.0714   0.00574   0.00088  -0.0184   0.5386   0.4024
   1.000   0.1259   0.00537   0.00084  -0.0182   0.5153   0.5321
   1.500   0.1783   0.00481   0.00082  -0.0176   0.4926   0.7354
   2.000   0.2350   0.00482   0.00088  -0.0176   0.4717   0.7791
   2.500   0.2923   0.00491   0.00094  -0.0177   0.4502   0.8005
   3.500   0.4065   0.00516   0.00111  -0.0179   0.4038   0.8323
   4.000   0.4630   0.00535   0.00123  -0.0180   0.3731   0.8462
   4.500   0.5189   0.00558   0.00138  -0.0180   0.3380   0.8611
   6.000   0.6793   0.00663   0.00213  -0.0166   0.2113   0.9310
   6.500   0.7306   0.00712   0.00247  -0.0157   0.1672   0.9506
   7.000   0.7813   0.00767   0.00285  -0.0148   0.1277   0.9697
   7.500   0.8363   0.00823   0.00327  -0.0149   0.0961   0.9840
   8.000   0.8956   0.00884   0.00373  -0.0161   0.0717   0.9930
   8.500   0.9589   0.00942   0.00422  -0.0182   0.0552   0.9964
   9.000   1.0211   0.01004   0.00475  -0.0202   0.0433   0.9996
   9.500   1.0685   0.01058   0.00524  -0.0188   0.0358   1.0000
  10.000   1.1147   0.01113   0.00577  -0.0173   0.0307   1.0000
  10.500   1.1628   0.01169   0.00632  -0.0162   0.0272   1.0000
  11.000   1.2110   0.01231   0.00693  -0.0152   0.0241   1.0000
  11.500   1.2580   0.01302   0.00764  -0.0141   0.0211   1.0000
  12.000   1.3053   0.01368   0.00831  -0.0131   0.0195   1.0000
  12.500   1.3500   0.01452   0.00917  -0.0118   0.0175   1.0000
  13.000   1.3950   0.01525   0.00994  -0.0105   0.0164   1.0000
  13.500   1.4359   0.01622   0.01093  -0.0088   0.0149   1.0000
  14.000   1.4758   0.01715   0.01192  -0.0069   0.0141   1.0000
  14.500   1.5120   0.01813   0.01296  -0.0046   0.0134   1.0000
  15.000   1.5391   0.01935   0.01422  -0.0009   0.0126   1.0000
