  
       XFOIL         Version 6.99
  
 Calculated polar for: NACA 2412                                       
  
 1 1 Reynolds number fixed          Mach number fixed         
  
 xtrf =   1.000 (top)        1.000 (bottom)  
 Mach =   0.000     Re =     1.521 e 6     Ncrit =   9.000
  
   alpha    CL        CD       CDp       CM     Top_Xtr  Bot_Xtr
  ------ -------- --------- --------- -------- -------- --------
  -5.000  -0.3121   0.00766   0.00240  -0.0546   0.8920   0.0627
  -4.500  -0.2571   0.00734   0.00211  -0.0543   0.8715   0.0782
  -4.000  -0.2018   0.00708   0.00185  -0.0540   0.8485   0.0979
  -3.500  -0.1465   0.00683   0.00162  -0.0538   0.8239   0.1241
  -3.000  -0.0913   0.00660   0.00143  -0.0535   0.7961   0.1582
  -2.500  -0.0358   0.00640   0.00128  -0.0533   0.7668   0.1983
  -2.000   0.0196   0.00623   0.00116  -0.0532   0.7357   0.2467
  -1.500   0.0749   0.00607   0.00107  -0.0530   0.7029   0.3019
  -1.000   0.1302   0.00592   0.00101  -0.0528   0.6696   0.3670
  -0.500   0.1849   0.00571   0.00098  -0.0526   0.6360   0.4630
   0.000   0.2395   0.00552   0.00099  -0.0524   0.6031   0.5700
   0.500   0.2942   0.00539   0.00104  -0.0521   0.5714   0.6651
   1.000   0.3484   0.00531   0.00111  -0.0516   0.5412   0.7541
   1.500   0.4017   0.00526   0.00122  -0.0509   0.5127   0.8396
   2.000   0.4535   0.00528   0.00136  -0.0496   0.4856   0.9106
   2.500   0.5064   0.00543   0.00151  -0.0486   0.4595   0.9584
   3.000   0.5672   0.00568   0.00166  -0.0495   0.4310   0.9831
   3.500   0.6362   0.00598   0.00183  -0.0524   0.3975   0.9931
   4.500   0.7672   0.00681   0.00227  -0.0570   0.3090   1.0000
   5.000   0.8131   0.00731   0.00256  -0.0551   0.2620   1.0000
   5.500   0.8588   0.00791   0.00292  -0.0532   0.2128   1.0000
   6.000   0.9050   0.00857   0.00335  -0.0514   0.1650   1.0000
   6.500   0.9520   0.00928   0.00384  -0.0499   0.1237   1.0000
   7.000   1.0000   0.00997   0.00436  -0.0486   0.0924   1.0000
   7.500   1.0483   0.01066   0.00492  -0.0474   0.0700   1.0000
   8.000   1.0967   0.01133   0.00550  -0.0462   0.0547   1.0000
   8.500   1.1449   0.01200   0.00611  -0.0451   0.0445   1.0000
   9.000   1.1923   0.01269   0.00677  -0.0438   0.0371   1.0000
   9.500   1.2392   0.01340   0.00747  -0.0425   0.0318   1.0000
  10.000   1.2847   0.01415   0.00823  -0.0410   0.0279   1.0000
  10.500   1.3279   0.01503   0.00911  -0.0392   0.0245   1.0000
  11.000   1.3713   0.01580   0.00991  -0.0375   0.0224   1.0000
  11.500   1.4100   0.01681   0.01096  -0.0351   0.0203   1.0000
  12.000   1.4464   0.01770   0.01191  -0.0322   0.0190   1.0000
  12.500   1.4743   0.01897   0.01323  -0.0282   0.0174   1.0000
  13.000   1.5047   0.02014   0.01449  -0.0250   0.0165   1.0000
  13.500   1.5324   0.02154   0.01597  -0.0217   0.0156   1.0000
  14.000   1.5541   0.02343   0.01794  -0.0182   0.0147   1.0000
  14.500   1.5712   0.02581   0.02045  -0.0148   0.0139   1.0000
  15.000   1.5916   0.02814   0.02291  -0.0124   0.0135   1.0000
