  
       XFOIL         Version 6.99
  
 Calculated polar for: NACA 2412                                       
  
 1 1 Reynolds number fixed          Mach number fixed         
  
 xtrf =   1.000 (top)        1.000 (bottom)  
 Mach =   0.000     Re =     2.332 e 6     Ncrit =   9.000
  
   alpha    CL        CD       CDp       CM     Top_Xtr  Bot_Xtr
  ------ -------- --------- --------- -------- -------- --------
  -5.000  -0.0194   0.00630   0.00140  -0.0979   0.8010   0.0959
  -4.500   0.0382   0.00607   0.00124  -0.0982   0.7961   0.1199
  -4.000   0.0961   0.00583   0.00112  -0.0986   0.7912   0.1498
  -3.500   0.1541   0.00559   0.00100  -0.0990   0.7861   0.1858
  -3.000   0.2117   0.00540   0.00091  -0.0993   0.7787   0.2258
  -2.500   0.2698   0.00519   0.00085  -0.0997   0.7711   0.2711
  -2.000   0.3272   0.00503   0.00080  -0.0999   0.7589   0.3208
  -1.500   0.3845   0.00488   0.00076  -0.1001   0.7383   0.3766
  -1.000   0.4343   0.00523   0.00087  -0.0989   0.6252   0.4445
  -0.500   0.4879   0.00537   0.00100  -0.0985   0.5719   0.5166
   0.000   0.5423   0.00551   0.00114  -0.0981   0.5295   0.5732
   0.500   0.5968   0.00570   0.00129  -0.0978   0.4923   0.6164
   1.500   0.7062   0.00618   0.00162  -0.0971   0.4269   0.6694
   2.000   0.7602   0.00649   0.00182  -0.0967   0.3918   0.6840
   2.500   0.8135   0.00687   0.00204  -0.0961   0.3509   0.6947
   3.000   0.8651   0.00730   0.00230  -0.0953   0.3042   0.7036
   3.500   0.9155   0.00781   0.00261  -0.0943   0.2540   0.7128
   4.000   0.9646   0.00840   0.00300  -0.0931   0.2018   0.7255
   4.500   1.0117   0.00849   0.00349  -0.0914   0.1548   0.9999
   5.000   1.0597   0.00920   0.00397  -0.0901   0.1144   0.9999
   5.500   1.1083   0.00984   0.00445  -0.0888   0.0862   0.9999
   6.000   1.1563   0.01049   0.00497  -0.0874   0.0651   0.9999
   6.500   1.2044   0.01110   0.00548  -0.0860   0.0517   0.9999
   7.000   1.2515   0.01173   0.00605  -0.0845   0.0416   0.9999
   7.500   1.2979   0.01238   0.00664  -0.0829   0.0342   0.9999
   8.000   1.3433   0.01302   0.00726  -0.0812   0.0293   0.9999
   8.500   1.3875   0.01367   0.00789  -0.0792   0.0260   0.9999
   9.000   1.4283   0.01436   0.00859  -0.0766   0.0231   0.9999
   9.500   1.4649   0.01519   0.00942  -0.0734   0.0202   0.9999
  10.000   1.5031   0.01594   0.01020  -0.0705   0.0189   0.9999
  10.500   1.5372   0.01695   0.01123  -0.0672   0.0170   0.9999
  11.000   1.5722   0.01789   0.01222  -0.0642   0.0161   0.9999
  11.500   1.6044   0.01901   0.01338  -0.0609   0.0149   0.9999
  12.000   1.6324   0.02044   0.01486  -0.0573   0.0136   0.9999
  12.500   1.6626   0.02174   0.01623  -0.0541   0.0131   0.9999
  13.000   1.6894   0.02330   0.01786  -0.0508   0.0124   0.9999
  13.500   1.7120   0.02520   0.01982  -0.0473   0.0117   0.9999
  14.000   1.7294   0.02757   0.02229  -0.0435   0.0110   0.9999
  14.500   1.7501   0.02975   0.02457  -0.0405   0.0107   0.9999
  15.000   1.7675   0.03229   0.02721  -0.0374   0.0104   0.9999
