  
       XFOIL         Version 6.99
  
 Calculated polar for: NACA 2412                                       
  
 1 1 Reynolds number fixed          Mach number fixed         
  
 xtrf =   1.000 (top)        1.000 (bottom)  
 Mach =   0.000     Re =     2.332 e 6     Ncrit =   9.000
  
   alpha    CL        CD       CDp       CM     Top_Xtr  Bot_Xtr
  ------ -------- --------- --------- -------- -------- --------
  -5.000  -1.0182   0.01188   0.00577   0.0486   0.6639   0.0223
  -4.500  -0.9663   0.01144   0.00530   0.0496   0.6577   0.0240
  -4.000  -0.9149   0.01091   0.00479   0.0507   0.6515   0.0274
  -3.500  -0.8627   0.01047   0.00435   0.0516   0.6439   0.0310
  -3.000  -0.8100   0.01008   0.00396   0.0525   0.6357   0.0351
  -2.500  -0.7572   0.00969   0.00359   0.0533   0.6261   0.0406
  -2.000  -0.7042   0.00930   0.00324   0.0541   0.6161   0.0492
  -1.500  -0.6512   0.00894   0.00291   0.0549   0.6041   0.0604
  -1.000  -0.5979   0.00860   0.00262   0.0556   0.5916   0.0750
  -0.500  -0.5447   0.00825   0.00235   0.0563   0.5784   0.0958
   0.000  -0.4913   0.00793   0.00211   0.0570   0.5641   0.1225
   0.500  -0.4382   0.00760   0.00189   0.0577   0.5490   0.1579
   1.000  -0.3851   0.00727   0.00169   0.0584   0.5334   0.2028
   1.500  -0.3320   0.00694   0.00152   0.0590   0.5175   0.2588
   2.000  -0.2794   0.00657   0.00136   0.0597   0.5016   0.3319
   2.500  -0.2293   0.00597   0.00116   0.0608   0.4858   0.4628
   3.000  -0.1840   0.00485   0.00086   0.0627   0.4711   0.7351
   3.500  -0.1255   0.00497   0.00093   0.0624   0.4558   0.7466
   4.000  -0.0672   0.00506   0.00098   0.0620   0.4399   0.7531
   4.500  -0.0087   0.00519   0.00106   0.0617   0.4233   0.7580
   5.000   0.0497   0.00538   0.00118   0.0613   0.4036   0.7623
   5.500   0.1082   0.00559   0.00132   0.0609   0.3822   0.7641
   6.000   0.1662   0.00573   0.00138   0.0604   0.3553   0.7664
   6.500   0.2239   0.00591   0.00148   0.0600   0.3260   0.7705
   7.000   0.2813   0.00619   0.00166   0.0596   0.2918   0.7731
   7.500   0.3386   0.00648   0.00181   0.0591   0.2550   0.7721
   8.000   0.3956   0.00683   0.00200   0.0586   0.2151   0.7712
   8.500   0.4520   0.00726   0.00226   0.0582   0.1742   0.7702
   9.000   0.5080   0.00772   0.00256   0.0578   0.1372   0.7691
   9.500   0.5635   0.00824   0.00292   0.0574   0.1042   0.7681
  10.000   0.6189   0.00875   0.00331   0.0570   0.0799   0.7670
  10.500   0.6742   0.00923   0.00371   0.0566   0.0631   0.7661
  11.000   0.7289   0.00976   0.00417   0.0563   0.0499   0.7652
  11.500   0.7833   0.01029   0.00466   0.0560   0.0405   0.7644
  12.000   0.8373   0.01080   0.00514   0.0557   0.0341   0.7641
  12.500   0.8908   0.01133   0.00565   0.0554   0.0295   0.7639
  13.000   0.9440   0.01186   0.00620   0.0552   0.0263   0.7636
  13.500   0.9963   0.01246   0.00682   0.0550   0.0233   0.7633
  14.000   1.0474   0.01316   0.00752   0.0549   0.0207   0.7630
  14.500   1.0983   0.01382   0.00822   0.0547   0.0191   0.7627
  15.000   1.1475   0.01462   0.00904   0.0547   0.0173   0.7624
