  
       XFOIL         Version 6.99
  
 Calculated polar for: NACA 2412                                       
  
 1 1 Reynolds number fixed          Mach number fixed         
  
 xtrf =   1.000 (top)        1.000 (bottom)  
 Mach =   0.000     Re =     1.521 e 6     Ncrit =   9.000
  
   alpha    CL        CD       CDp       CM     Top_Xtr  Bot_Xtr
  ------ -------- --------- --------- -------- -------- --------
  -5.000  -0.0925   0.00705   0.00182  -0.0872   0.8329   0.0964
  -4.500  -0.0356   0.00679   0.00161  -0.0874   0.8260   0.1223
  -4.000   0.0218   0.00649   0.00144  -0.0877   0.8200   0.1543
  -3.500   0.0789   0.00625   0.00130  -0.0879   0.8124   0.1924
  -3.000   0.1362   0.00600   0.00119  -0.0881   0.8048   0.2374
  -2.500   0.1933   0.00578   0.00110  -0.0883   0.7949   0.2875
  -2.000   0.2506   0.00555   0.00103  -0.0885   0.7839   0.3431
  -1.500   0.3073   0.00532   0.00098  -0.0886   0.7692   0.4125
  -1.000   0.3631   0.00511   0.00096  -0.0885   0.7453   0.5015
  -0.500   0.4142   0.00530   0.00100  -0.0874   0.6550   0.5719
   0.000   0.4673   0.00554   0.00117  -0.0868   0.5999   0.6250
   0.500   0.5213   0.00580   0.00133  -0.0863   0.5562   0.6629
   1.000   0.5761   0.00604   0.00148  -0.0860   0.5192   0.6875
   1.500   0.6308   0.00629   0.00162  -0.0856   0.4849   0.7046
   2.000   0.6848   0.00648   0.00176  -0.0852   0.4523   0.7223
   3.000   0.7972   0.00653   0.00222  -0.0852   0.3807   1.0000
   3.500   0.8480   0.00698   0.00248  -0.0842   0.3371   1.0000
   4.000   0.8977   0.00754   0.00280  -0.0830   0.2874   1.0000
   4.500   0.9462   0.00821   0.00321  -0.0817   0.2340   1.0000
   5.000   0.9939   0.00895   0.00368  -0.0803   0.1814   1.0000
   5.500   1.0411   0.00972   0.00421  -0.0788   0.1353   1.0000
   6.000   1.0880   0.01051   0.00479  -0.0773   0.0993   1.0000
   6.500   1.1351   0.01124   0.00538  -0.0758   0.0743   1.0000
   7.000   1.1817   0.01197   0.00600  -0.0743   0.0573   1.0000
   7.500   1.2282   0.01266   0.00663  -0.0727   0.0463   1.0000
   8.000   1.2736   0.01338   0.00731  -0.0710   0.0386   1.0000
   8.500   1.3176   0.01412   0.00804  -0.0691   0.0328   1.0000
   9.000   1.3596   0.01493   0.00884  -0.0669   0.0285   1.0000
   9.500   1.3979   0.01575   0.00967  -0.0640   0.0254   1.0000
  10.000   1.4344   0.01660   0.01056  -0.0609   0.0230   1.0000
  10.500   1.4670   0.01770   0.01168  -0.0573   0.0207   1.0000
  11.000   1.5012   0.01871   0.01277  -0.0542   0.0194   1.0000
  11.500   1.5319   0.01995   0.01406  -0.0508   0.0180   1.0000
  12.000   1.5586   0.02149   0.01568  -0.0471   0.0167   1.0000
  12.500   1.5873   0.02293   0.01720  -0.0440   0.0158   1.0000
  13.000   1.6114   0.02474   0.01909  -0.0406   0.0149   1.0000
  13.500   1.6257   0.02736   0.02182  -0.0366   0.0139   1.0000
  14.000   1.6475   0.02953   0.02410  -0.0338   0.0135   1.0000
  14.500   1.6644   0.03218   0.02688  -0.0308   0.0130   1.0000
  15.000   1.6773   0.03530   0.03013  -0.0281   0.0124   1.0000
