  
       XFOIL         Version 6.99
  
 Calculated polar for: NACA 2412                                       
  
 1 1 Reynolds number fixed          Mach number fixed         
  
 xtrf =   1.000 (top)        1.000 (bottom)  
 Mach =   0.000     Re =     2.332 e 6     Ncrit =   9.000
  
   alpha    CL        CD       CDp       CM     Top_Xtr  Bot_Xtr
  ------ -------- --------- --------- -------- -------- --------
  -5.000   0.5109   0.00603   0.00163  -0.1781   0.7635   0.2326
  -4.500   0.5694   0.00591   0.00161  -0.1787   0.7613   0.2719
  -4.000   0.6277   0.00582   0.00164  -0.1792   0.7588   0.3126
  -3.500   0.6862   0.00559   0.00153  -0.1797   0.7571   0.3540
  -3.000   0.7444   0.00536   0.00144  -0.1801   0.7539   0.3993
  -2.500   0.8024   0.00514   0.00135  -0.1804   0.7491   0.4519
  -2.000   0.8598   0.00503   0.00133  -0.1806   0.7425   0.4956
  -1.500   0.9101   0.00520   0.00133  -0.1793   0.6605   0.5297
  -1.000   0.9404   0.00654   0.00215  -0.1741   0.5256   0.5541
  -0.500   0.9826   0.00715   0.00256  -0.1713   0.4677   0.5759
   0.000   1.0254   0.00767   0.00294  -0.1686   0.4241   0.5935
   0.500   1.0650   0.00825   0.00336  -0.1652   0.3805   0.6081
   1.000   1.0944   0.00893   0.00387  -0.1597   0.3335   0.6199
   1.500   1.1272   0.00978   0.00453  -0.1553   0.2849   0.6311
   2.000   1.1589   0.01081   0.00531  -0.1507   0.2313   0.6400
   2.500   1.1928   0.01184   0.00611  -0.1468   0.1815   0.6483
   3.000   1.2280   0.01288   0.00692  -0.1431   0.1369   0.6550
   3.500   1.2656   0.01384   0.00772  -0.1400   0.1028   0.6613
   4.000   1.3043   0.01477   0.00850  -0.1370   0.0783   0.6670
   4.500   1.3432   0.01570   0.00933  -0.1342   0.0598   0.6719
   5.000   1.3827   0.01658   0.01014  -0.1315   0.0484   0.6760
   5.500   1.4219   0.01749   0.01099  -0.1288   0.0393   0.6791
   6.000   1.4605   0.01843   0.01190  -0.1260   0.0332   0.6817
   6.500   1.4987   0.01937   0.01284  -0.1233   0.0286   0.6844
   7.000   1.5357   0.02039   0.01385  -0.1204   0.0250   0.6875
   7.500   1.5710   0.02151   0.01498  -0.1173   0.0217   0.6896
   8.000   1.6072   0.02255   0.01605  -0.1145   0.0201   0.6920
   8.500   1.6393   0.02386   0.01738  -0.1111   0.0178   0.6945
   9.000   1.6731   0.02506   0.01862  -0.1081   0.0167   0.6969
   9.500   1.7023   0.02652   0.02012  -0.1045   0.0152   0.6988
  10.000   1.7319   0.02799   0.02166  -0.1011   0.0142   0.7012
  10.500   1.7595   0.02960   0.02333  -0.0976   0.0134   0.7033
  11.000   1.7843   0.03143   0.02522  -0.0939   0.0125   0.7053
  11.500   1.8064   0.03350   0.02739  -0.0900   0.0117   0.7073
  12.000   1.8294   0.03552   0.02951  -0.0864   0.0112   0.7091
  12.500   1.8503   0.03776   0.03183  -0.0827   0.0107   0.7107
  13.000   1.8664   0.04046   0.03462  -0.0788   0.0102   0.7127
  13.500   1.8764   0.04377   0.03805  -0.0746   0.0095   0.7145
  14.000   1.8877   0.04708   0.04149  -0.0709   0.0092   0.7161
  14.500   1.8993   0.05051   0.04505  -0.0676   0.0090   0.7179
  15.000   1.9062   0.05454   0.04921  -0.0644   0.0088   0.7196
