  
       XFOIL         Version 6.99
  
 Calculated polar for: NACA 2412                                       
  
 1 1 Reynolds number fixed          Mach number fixed         
  
 xtrf =   1.000 (top)        1.000 (bottom)  
 Mach =   0.000     Re =     2.332 e 6     Ncrit =   9.000
  
   alpha    CL        CD       CDp       CM     Top_Xtr  Bot_Xtr
  ------ -------- --------- --------- -------- -------- --------
  -5.000  -0.0949   0.00648   0.00152  -0.0865   0.8099   0.0828
  -4.500  -0.0371   0.00620   0.00134  -0.0869   0.8048   0.1040
  -4.000   0.0203   0.00597   0.00118  -0.0871   0.7975   0.1301
  -3.500   0.0780   0.00574   0.00106  -0.0875   0.7905   0.1624
  -3.000   0.1356   0.00552   0.00095  -0.0877   0.7815   0.2010
  -2.500   0.1932   0.00532   0.00087  -0.0880   0.7712   0.2435
  -2.000   0.2505   0.00515   0.00081  -0.0883   0.7561   0.2914
  -1.500   0.3068   0.00505   0.00075  -0.0882   0.7150   0.3443
  -1.000   0.3583   0.00533   0.00084  -0.0874   0.6246   0.4052
  -0.500   0.4127   0.00535   0.00092  -0.0871   0.5779   0.4884
   0.000   0.4675   0.00542   0.00103  -0.0869   0.5381   0.5582
   0.500   0.5227   0.00553   0.00114  -0.0867   0.5035   0.6116
   1.000   0.5779   0.00569   0.00129  -0.0865   0.4712   0.6508
   2.000   0.6883   0.00616   0.00159  -0.0860   0.4089   0.6941
   2.500   0.7426   0.00645   0.00176  -0.0857   0.3725   0.7064
   3.500   0.8469   0.00712   0.00226  -0.0843   0.2816   0.7690
   4.000   0.8995   0.00724   0.00266  -0.0837   0.2311   1.0000
   4.500   0.9490   0.00787   0.00304  -0.0825   0.1821   1.0000
   5.000   0.9979   0.00854   0.00348  -0.0813   0.1378   1.0000
   5.500   1.0465   0.00923   0.00396  -0.0800   0.1014   1.0000
   6.000   1.0955   0.00987   0.00445  -0.0788   0.0758   1.0000
   6.500   1.1446   0.01047   0.00494  -0.0777   0.0595   1.0000
   7.000   1.1931   0.01107   0.00547  -0.0764   0.0470   1.0000
   7.500   1.2413   0.01167   0.00601  -0.0752   0.0389   1.0000
   8.000   1.2885   0.01229   0.00660  -0.0737   0.0326   1.0000
   8.500   1.3347   0.01294   0.00722  -0.0722   0.0281   1.0000
   9.000   1.3791   0.01365   0.00791  -0.0703   0.0243   1.0000
   9.500   1.4225   0.01433   0.00860  -0.0683   0.0219   1.0000
  10.000   1.4622   0.01508   0.00936  -0.0657   0.0198   1.0000
  10.500   1.4984   0.01589   0.01019  -0.0624   0.0181   1.0000
  11.000   1.5328   0.01683   0.01117  -0.0591   0.0166   1.0000
  11.500   1.5672   0.01777   0.01215  -0.0560   0.0155   1.0000
  12.000   1.5968   0.01903   0.01344  -0.0524   0.0141   1.0000
  12.500   1.6274   0.02025   0.01474  -0.0492   0.0135   1.0000
  13.000   1.6562   0.02162   0.01618  -0.0459   0.0129   1.0000
  13.500   1.6813   0.02329   0.01791  -0.0425   0.0121   1.0000
  14.000   1.6991   0.02555   0.02026  -0.0387   0.0112   1.0000
  14.500   1.7217   0.02755   0.02236  -0.0357   0.0110   1.0000
  15.000   1.7410   0.02988   0.02479  -0.0327   0.0106   1.0000
