  
       XFOIL         Version 6.99
  
 Calculated polar for: NACA 2412                                       
  
 1 1 Reynolds number fixed          Mach number fixed         
  
 xtrf =   1.000 (top)        1.000 (bottom)  
 Mach =   0.000     Re =     2.332 e 6     Ncrit =   9.000
  
   alpha    CL        CD       CDp       CM     Top_Xtr  Bot_Xtr
  ------ -------- --------- --------- -------- -------- --------
  -5.000  -0.3174   0.00705   0.00205  -0.0533   0.8559   0.0548
  -4.500  -0.2618   0.00681   0.00180  -0.0531   0.8318   0.0673
  -4.000  -0.2059   0.00661   0.00158  -0.0530   0.8063   0.0825
  -3.500  -0.1502   0.00641   0.00139  -0.0529   0.7778   0.1049
  -3.000  -0.0942   0.00624   0.00123  -0.0528   0.7477   0.1322
  -2.500  -0.0382   0.00609   0.00110  -0.0527   0.7165   0.1653
  -2.000   0.0177   0.00595   0.00099  -0.0527   0.6836   0.2060
  -1.500   0.0738   0.00584   0.00092  -0.0527   0.6508   0.2516
  -1.000   0.1298   0.00573   0.00088  -0.0527   0.6177   0.3054
  -0.500   0.1858   0.00564   0.00085  -0.0527   0.5857   0.3659
   0.000   0.2413   0.00547   0.00085  -0.0526   0.5550   0.4563
   0.500   0.2968   0.00532   0.00088  -0.0526   0.5258   0.5557
   1.000   0.3522   0.00523   0.00094  -0.0525   0.4981   0.6440
   1.500   0.4077   0.00516   0.00102  -0.0523   0.4726   0.7281
   2.000   0.4624   0.00512   0.00113  -0.0519   0.4474   0.8102
   2.500   0.5158   0.00512   0.00127  -0.0512   0.4213   0.8855
   3.000   0.5676   0.00523   0.00142  -0.0500   0.3925   0.9422
   3.500   0.6219   0.00551   0.00160  -0.0495   0.3557   0.9756
   4.000   0.6842   0.00589   0.00181  -0.0510   0.3130   0.9906
   4.500   0.7519   0.00640   0.00208  -0.0538   0.2628   0.9966
   5.000   0.8171   0.00698   0.00241  -0.0562   0.2105   1.0000
   5.500   0.8623   0.00755   0.00276  -0.0541   0.1650   1.0000
   6.000   0.9083   0.00815   0.00315  -0.0523   0.1257   1.0000
   6.500   0.9564   0.00872   0.00357  -0.0509   0.0959   1.0000
   7.000   1.0055   0.00931   0.00402  -0.0497   0.0727   1.0000
   7.500   1.0550   0.00990   0.00451  -0.0487   0.0560   1.0000
   8.000   1.1051   0.01045   0.00499  -0.0478   0.0457   1.0000
   8.500   1.1546   0.01103   0.00552  -0.0468   0.0378   1.0000
   9.000   1.2037   0.01163   0.00608  -0.0458   0.0318   1.0000
   9.500   1.2521   0.01223   0.00667  -0.0448   0.0276   1.0000
  10.000   1.2994   0.01290   0.00732  -0.0435   0.0241   1.0000
  10.500   1.3454   0.01361   0.00803  -0.0421   0.0212   1.0000
  11.000   1.3910   0.01430   0.00874  -0.0407   0.0196   1.0000
  11.500   1.4333   0.01515   0.00959  -0.0388   0.0175   1.0000
  12.000   1.4753   0.01592   0.01041  -0.0369   0.0164   1.0000
  12.500   1.5123   0.01681   0.01133  -0.0342   0.0152   1.0000
  13.000   1.5420   0.01791   0.01248  -0.0303   0.0140   1.0000
  13.500   1.5737   0.01894   0.01358  -0.0271   0.0135   1.0000
  14.000   1.6020   0.02023   0.01493  -0.0238   0.0128   1.0000
  14.500   1.6256   0.02189   0.01667  -0.0203   0.0120   1.0000
  15.000   1.6455   0.02394   0.01882  -0.0169   0.0113   1.0000
