  
       XFOIL         Version 6.99
  
 Calculated polar for: NACA 2412                                       
  
 1 1 Reynolds number fixed          Mach number fixed         
  
 xtrf =   1.000 (top)        1.000 (bottom)  
 Mach =   0.000     Re =     2.332 e 6     Ncrit =   9.000
  
   alpha    CL        CD       CDp       CM     Top_Xtr  Bot_Xtr
  ------ -------- --------- --------- -------- -------- --------
  -5.000  -1.2514   0.01585   0.00968   0.0773   0.6423   0.0177
  -4.500  -1.2054   0.01518   0.00898   0.0793   0.6366   0.0192
  -4.000  -1.1590   0.01456   0.00835   0.0813   0.6298   0.0210
  -3.500  -1.1121   0.01400   0.00777   0.0831   0.6241   0.0225
  -3.000  -1.0652   0.01342   0.00719   0.0850   0.6165   0.0254
  -2.500  -1.0179   0.01288   0.00666   0.0868   0.6090   0.0285
  -2.000  -0.9706   0.01240   0.00616   0.0886   0.6000   0.0314
  -1.500  -0.9237   0.01187   0.00566   0.0905   0.5913   0.0369
  -1.000  -0.8770   0.01138   0.00518   0.0924   0.5804   0.0436
  -0.500  -0.8305   0.01089   0.00473   0.0944   0.5708   0.0519
   0.000  -0.7845   0.01043   0.00430   0.0965   0.5594   0.0627
   0.500  -0.7428   0.00998   0.00390   0.0995   0.5472   0.0788
   1.000  -0.7002   0.00957   0.00356   0.1024   0.5361   0.0975
   1.500  -0.6552   0.00913   0.00322   0.1047   0.5238   0.1258
   2.000  -0.6094   0.00871   0.00291   0.1069   0.5102   0.1605
   2.500  -0.5639   0.00824   0.00260   0.1091   0.4983   0.2091
   3.000  -0.5182   0.00775   0.00231   0.1112   0.4865   0.2705
   3.500  -0.4736   0.00715   0.00200   0.1134   0.4738   0.3623
   5.000  -0.3281   0.00579   0.00172   0.1179   0.4360   0.7338
   5.500  -0.2701   0.00588   0.00180   0.1177   0.4218   0.7401
   6.000  -0.2110   0.00618   0.00208   0.1172   0.4053   0.7443
   6.500  -0.1518   0.00652   0.00239   0.1167   0.3867   0.7472
   7.000  -0.0927   0.00687   0.00267   0.1161   0.3654   0.7492
   7.500  -0.0360   0.00678   0.00253   0.1159   0.3401   0.7539
   8.000   0.0228   0.00718   0.00291   0.1153   0.3141   0.7582
   8.500   0.0806   0.00731   0.00294   0.1147   0.2844   0.7575
   9.000   0.1382   0.00749   0.00299   0.1141   0.2500   0.7567
   9.500   0.1955   0.00772   0.00308   0.1134   0.2141   0.7559
  10.000   0.2525   0.00803   0.00324   0.1127   0.1756   0.7551
  10.500   0.3093   0.00838   0.00344   0.1119   0.1411   0.7543
  11.000   0.3658   0.00880   0.00371   0.1112   0.1086   0.7536
  11.500   0.4222   0.00921   0.00402   0.1105   0.0854   0.7529
  12.000   0.4783   0.00968   0.00439   0.1097   0.0662   0.7523
  12.500   0.5343   0.01014   0.00479   0.1090   0.0532   0.7517
  13.000   0.5900   0.01064   0.00525   0.1082   0.0436   0.7512
  13.500   0.6454   0.01116   0.00575   0.1074   0.0366   0.7507
  14.000   0.7005   0.01170   0.00628   0.1066   0.0315   0.7502
  14.500   0.7552   0.01228   0.00688   0.1058   0.0276   0.7498
  15.000   0.8090   0.01297   0.00758   0.1050   0.0240   0.7495
