  
       XFOIL         Version 6.99
  
 Calculated polar for: NACA 2412                                       
  
 1 1 Reynolds number fixed          Mach number fixed         
  
 xtrf =   1.000 (top)        1.000 (bottom)  
 Mach =   0.000     Re =     1.521 e 6     Ncrit =   9.000
  
   alpha    CL        CD       CDp       CM     Top_Xtr  Bot_Xtr
  ------ -------- --------- --------- -------- -------- --------
  -5.000   0.1323   0.00673   0.00163  -0.1211   0.8042   0.1493
  -4.500   0.1902   0.00646   0.00150  -0.1216   0.8016   0.1866
  -4.000   0.2482   0.00622   0.00139  -0.1220   0.7983   0.2278
  -3.500   0.3061   0.00603   0.00132  -0.1224   0.7943   0.2741
  -3.000   0.3640   0.00583   0.00127  -0.1228   0.7903   0.3235
  -2.500   0.4218   0.00560   0.00121  -0.1231   0.7849   0.3779
  -2.000   0.4791   0.00539   0.00117  -0.1233   0.7778   0.4460
  -1.500   0.5365   0.00520   0.00118  -0.1235   0.7697   0.5139
  -1.000   0.5935   0.00509   0.00119  -0.1235   0.7568   0.5649
  -0.500   0.6460   0.00520   0.00115  -0.1226   0.6772   0.6018
   0.000   0.6905   0.00602   0.00157  -0.1202   0.5780   0.6286
   0.500   0.7413   0.00646   0.00185  -0.1191   0.5254   0.6492
   1.000   0.7927   0.00687   0.00210  -0.1181   0.4817   0.6647
   1.500   0.8438   0.00730   0.00237  -0.1171   0.4427   0.6764
   2.000   0.8951   0.00771   0.00265  -0.1160   0.4057   0.6860
   2.500   0.9443   0.00820   0.00295  -0.1147   0.3611   0.6941
   3.000   0.9917   0.00876   0.00330  -0.1131   0.3104   0.7017
   3.500   1.0376   0.00940   0.00372  -0.1112   0.2560   0.7096
   4.500   1.1251   0.01090   0.00478  -0.1069   0.1504   0.7301
   5.000   1.1682   0.01168   0.00541  -0.1046   0.1099   0.7449
   5.500   1.2086   0.01197   0.00606  -0.1017   0.0828   0.9999
   6.000   1.2496   0.01275   0.00672  -0.0990   0.0633   0.9999
   6.500   1.2900   0.01350   0.00740  -0.0962   0.0506   0.9999
   7.000   1.3297   0.01431   0.00815  -0.0934   0.0415   0.9999
   7.500   1.3689   0.01513   0.00895  -0.0906   0.0353   0.9999
   8.000   1.4075   0.01599   0.00981  -0.0878   0.0305   0.9999
   8.500   1.4446   0.01694   0.01078  -0.0849   0.0270   0.9999
   9.000   1.4790   0.01805   0.01189  -0.0816   0.0238   0.9999
   9.500   1.5146   0.01908   0.01297  -0.0787   0.0219   0.9999
  10.000   1.5447   0.02048   0.01440  -0.0752   0.0196   0.9999
  10.500   1.5775   0.02169   0.01569  -0.0721   0.0186   0.9999
  11.000   1.6063   0.02319   0.01724  -0.0687   0.0173   0.9999
  11.500   1.6298   0.02509   0.01922  -0.0649   0.0160   0.9999
  12.000   1.6567   0.02676   0.02099  -0.0617   0.0152   0.9999
  12.500   1.6793   0.02877   0.02308  -0.0582   0.0144   0.9999
  13.000   1.6941   0.03145   0.02586  -0.0542   0.0135   0.9999
  13.500   1.7085   0.03422   0.02876  -0.0505   0.0129   0.9999
  14.000   1.7238   0.03705   0.03171  -0.0473   0.0125   0.9999
  14.500   1.7354   0.04034   0.03514  -0.0442   0.0120   0.9999
  15.000   1.7425   0.04426   0.03919  -0.0414   0.0116   0.9999
