  
       XFOIL         Version 6.99
  
 Calculated polar for: NACA 2412                                       
  
 1 1 Reynolds number fixed          Mach number fixed         
  
 xtrf =   1.000 (top)        1.000 (bottom)  
 Mach =   0.000     Re =     2.332 e 6     Ncrit =   9.000
  
   alpha    CL        CD       CDp       CM     Top_Xtr  Bot_Xtr
  ------ -------- --------- --------- -------- -------- --------
  -5.000  -0.4702   0.00800   0.00253  -0.0301   0.7595   0.0431
  -4.500  -0.4151   0.00778   0.00225  -0.0299   0.7312   0.0512
  -4.000  -0.3593   0.00755   0.00201  -0.0298   0.7167   0.0618
  -3.500  -0.3031   0.00728   0.00179  -0.0297   0.7054   0.0771
  -3.000  -0.2467   0.00702   0.00159  -0.0297   0.6937   0.0959
  -2.500  -0.1902   0.00676   0.00141  -0.0298   0.6783   0.1224
  -2.000  -0.1338   0.00653   0.00125  -0.0298   0.6589   0.1543
  -1.500  -0.0776   0.00631   0.00111  -0.0298   0.6364   0.1953
  -1.000  -0.0214   0.00612   0.00101  -0.0298   0.6120   0.2424
  -0.500   0.0347   0.00596   0.00093  -0.0298   0.5861   0.2966
   0.000   0.0908   0.00579   0.00088  -0.0298   0.5603   0.3616
   0.500   0.1461   0.00553   0.00085  -0.0297   0.5354   0.4617
   1.000   0.2011   0.00524   0.00084  -0.0296   0.5104   0.5837
   1.500   0.2546   0.00486   0.00087  -0.0291   0.4872   0.7490
   2.000   0.3110   0.00488   0.00094  -0.0290   0.4648   0.7944
   2.500   0.3676   0.00498   0.00102  -0.0290   0.4412   0.8214
   3.000   0.4241   0.00507   0.00112  -0.0290   0.4183   0.8462
   3.500   0.4801   0.00524   0.00124  -0.0289   0.3896   0.8693
   4.000   0.5352   0.00544   0.00139  -0.0287   0.3561   0.8927
   4.500   0.5891   0.00570   0.00157  -0.0282   0.3180   0.9190
   5.000   0.6405   0.00604   0.00182  -0.0271   0.2758   0.9492
   5.500   0.6919   0.00647   0.00211  -0.0261   0.2309   0.9767
   6.000   0.7517   0.00702   0.00244  -0.0272   0.1832   0.9895
   6.500   0.8151   0.00765   0.00285  -0.0293   0.1377   0.9949
   7.000   0.8786   0.00831   0.00329  -0.0314   0.1000   0.9975
   7.500   0.9412   0.00892   0.00375  -0.0334   0.0742   1.0000
   8.000   0.9849   0.00945   0.00419  -0.0311   0.0584   1.0000
   8.500   1.0308   0.00996   0.00463  -0.0293   0.0474   1.0000
   9.000   1.0787   0.01049   0.00511  -0.0280   0.0395   1.0000
   9.500   1.1275   0.01106   0.00564  -0.0270   0.0332   1.0000
  10.000   1.1764   0.01165   0.00621  -0.0260   0.0286   1.0000
  10.500   1.2245   0.01230   0.00685  -0.0250   0.0248   1.0000
  11.000   1.2724   0.01295   0.00749  -0.0240   0.0221   1.0000
  11.500   1.3193   0.01363   0.00819  -0.0228   0.0201   1.0000
  12.000   1.3643   0.01442   0.00899  -0.0215   0.0181   1.0000
  12.500   1.4085   0.01520   0.00981  -0.0200   0.0168   1.0000
  13.000   1.4506   0.01604   0.01068  -0.0184   0.0155   1.0000
  13.500   1.4882   0.01710   0.01178  -0.0160   0.0142   1.0000
  14.000   1.5234   0.01801   0.01275  -0.0133   0.0136   1.0000
  14.500   1.5523   0.01914   0.01394  -0.0098   0.0129   1.0000
  15.000   1.5767   0.02063   0.01549  -0.0062   0.0121   1.0000
