  
       XFOIL         Version 6.99
  
 Calculated polar for: NACA 2412                                       
  
 1 1 Reynolds number fixed          Mach number fixed         
  
 xtrf =   1.000 (top)        1.000 (bottom)  
 Mach =   0.000     Re =     1.521 e 6     Ncrit =   9.000
  
   alpha    CL        CD       CDp       CM     Top_Xtr  Bot_Xtr
  ------ -------- --------- --------- -------- -------- --------
  -5.000  -1.2306   0.01755   0.01106   0.0739   0.6532   0.0203
  -4.500  -1.1849   0.01686   0.01033   0.0759   0.6487   0.0216
  -4.000  -1.1389   0.01609   0.00952   0.0779   0.6436   0.0238
  -3.500  -1.0921   0.01547   0.00890   0.0797   0.6376   0.0259
  -3.000  -1.0456   0.01480   0.00820   0.0817   0.6310   0.0291
  -2.500  -0.9984   0.01423   0.00763   0.0835   0.6242   0.0320
  -2.000  -0.9516   0.01363   0.00703   0.0853   0.6161   0.0369
  -1.500  -0.9050   0.01305   0.00649   0.0873   0.6081   0.0432
  -1.000  -0.8585   0.01250   0.00595   0.0892   0.5986   0.0512
  -0.500  -0.8124   0.01196   0.00544   0.0912   0.5890   0.0616
   0.000  -0.7672   0.01141   0.00494   0.0934   0.5783   0.0772
   0.500  -0.7231   0.01085   0.00447   0.0958   0.5674   0.0972
   1.000  -0.6840   0.01031   0.00403   0.0992   0.5562   0.1248
   1.500  -0.6443   0.00982   0.00364   0.1026   0.5441   0.1591
   2.000  -0.6028   0.00926   0.00326   0.1055   0.5322   0.2078
   2.500  -0.5614   0.00865   0.00288   0.1085   0.5202   0.2732
   3.000  -0.5207   0.00795   0.00249   0.1115   0.5078   0.3645
   5.000  -0.3248   0.00706   0.00268   0.1177   0.4566   0.7487
   5.500  -0.2674   0.00705   0.00265   0.1175   0.4417   0.7546
   6.000  -0.2084   0.00736   0.00295   0.1171   0.4271   0.7587
   6.500  -0.1492   0.00775   0.00332   0.1167   0.4106   0.7627
   7.000  -0.0911   0.00797   0.00348   0.1163   0.3910   0.7660
   7.500  -0.0336   0.00806   0.00359   0.1161   0.3706   0.7716
   8.000   0.0240   0.00810   0.00353   0.1155   0.3443   0.7705
   8.500   0.0817   0.00818   0.00351   0.1149   0.3167   0.7692
   9.000   0.1393   0.00838   0.00358   0.1142   0.2842   0.7680
   9.500   0.1969   0.00868   0.00376   0.1135   0.2488   0.7670
  10.000   0.2543   0.00912   0.00406   0.1127   0.2098   0.7662
  10.500   0.3115   0.00962   0.00443   0.1120   0.1707   0.7655
  11.000   0.3682   0.01024   0.00491   0.1112   0.1322   0.7649
  11.500   0.4243   0.01076   0.00531   0.1104   0.1019   0.7644
  12.000   0.4792   0.01113   0.00558   0.1098   0.0783   0.7640
  12.500   0.5342   0.01153   0.00591   0.1091   0.0625   0.7636
  13.000   0.5887   0.01203   0.00635   0.1084   0.0495   0.7632
  13.500   0.6431   0.01255   0.00685   0.1076   0.0410   0.7627
  14.000   0.6972   0.01310   0.00739   0.1069   0.0351   0.7622
  14.500   0.7509   0.01366   0.00799   0.1061   0.0311   0.7617
  15.000   0.8039   0.01434   0.00870   0.1052   0.0276   0.7612
