  
       XFOIL         Version 6.99
  
 Calculated polar for: NACA 2412                                       
  
 1 1 Reynolds number fixed          Mach number fixed         
  
 xtrf =   1.000 (top)        1.000 (bottom)  
 Mach =   0.000     Re =     1.521 e 6     Ncrit =   9.000
  
   alpha    CL        CD       CDp       CM     Top_Xtr  Bot_Xtr
  ------ -------- --------- --------- -------- -------- --------
  -5.000  -0.6118   0.00982   0.00365  -0.0093   0.7230   0.0389
  -4.500  -0.5576   0.00948   0.00329  -0.0089   0.7141   0.0456
  -4.000  -0.5027   0.00913   0.00296  -0.0086   0.7069   0.0540
  -3.500  -0.4477   0.00877   0.00265  -0.0083   0.6994   0.0672
  -3.000  -0.3924   0.00842   0.00236  -0.0081   0.6907   0.0840
  -2.500  -0.3367   0.00803   0.00209  -0.0080   0.6808   0.1076
  -2.000  -0.2810   0.00768   0.00185  -0.0078   0.6691   0.1380
  -1.500  -0.2255   0.00735   0.00163  -0.0077   0.6549   0.1774
  -1.000  -0.1700   0.00703   0.00145  -0.0075   0.6379   0.2252
  -0.500  -0.1147   0.00673   0.00130  -0.0073   0.6188   0.2837
   0.000  -0.0596   0.00645   0.00118  -0.0071   0.5978   0.3553
   0.500  -0.0059   0.00600   0.00107  -0.0068   0.5766   0.4741
   1.000   0.0433   0.00512   0.00094  -0.0056   0.5547   0.7177
   1.500   0.0992   0.00511   0.00099  -0.0053   0.5320   0.7800
   2.000   0.1564   0.00520   0.00103  -0.0054   0.5104   0.8006
   2.500   0.2136   0.00528   0.00109  -0.0054   0.4892   0.8161
   3.000   0.2707   0.00540   0.00116  -0.0055   0.4675   0.8280
   3.500   0.3280   0.00555   0.00124  -0.0057   0.4455   0.8380
   4.000   0.3849   0.00567   0.00134  -0.0058   0.4225   0.8482
   4.500   0.4413   0.00586   0.00146  -0.0058   0.3954   0.8601
   5.000   0.4968   0.00608   0.00162  -0.0057   0.3630   0.8752
   5.500   0.5522   0.00637   0.00182  -0.0056   0.3256   0.8872
   6.000   0.6068   0.00674   0.00206  -0.0054   0.2833   0.8953
   7.000   0.7132   0.00773   0.00273  -0.0048   0.1900   0.9182
   7.500   0.7641   0.00832   0.00316  -0.0041   0.1455   0.9350
   8.000   0.8139   0.00892   0.00363  -0.0031   0.1096   0.9553
   8.500   0.8663   0.00956   0.00416  -0.0027   0.0821   0.9746
   9.000   0.9253   0.01021   0.00471  -0.0040   0.0627   0.9872
   9.500   0.9866   0.01090   0.00533  -0.0058   0.0488   0.9952
  10.000   1.0499   0.01160   0.00598  -0.0082   0.0398   0.9994
  10.500   1.0953   0.01224   0.00660  -0.0066   0.0340   1.0001
  11.000   1.1397   0.01293   0.00729  -0.0049   0.0297   1.0001
  11.500   1.1845   0.01375   0.00809  -0.0035   0.0259   1.0001
  12.000   1.2310   0.01443   0.00882  -0.0024   0.0237   1.0001
  12.500   1.2743   0.01538   0.00979  -0.0009   0.0213   1.0001
  13.000   1.3182   0.01621   0.01068   0.0004   0.0198   1.0001
  13.500   1.3558   0.01746   0.01197   0.0025   0.0179   1.0001
  14.000   1.3960   0.01838   0.01297   0.0041   0.0171   1.0001
  14.500   1.4294   0.01953   0.01418   0.0067   0.0160   1.0001
  15.000   1.4489   0.02128   0.01602   0.0109   0.0149   1.0001
