  
       XFOIL         Version 6.99
  
 Calculated polar for: NACA 2412                                       
  
 1 1 Reynolds number fixed          Mach number fixed         
  
 xtrf =   1.000 (top)        1.000 (bottom)  
 Mach =   0.000     Re =     2.332 e 6     Ncrit =   9.000
  
   alpha    CL        CD       CDp       CM     Top_Xtr  Bot_Xtr
  ------ -------- --------- --------- -------- -------- --------
  -5.000   0.0559   0.00619   0.00133  -0.1093   0.7920   0.1109
  -4.500   0.1141   0.00593   0.00119  -0.1097   0.7895   0.1390
  -4.000   0.1722   0.00569   0.00107  -0.1102   0.7858   0.1721
  -3.500   0.2302   0.00549   0.00097  -0.1106   0.7809   0.2094
  -3.000   0.2882   0.00531   0.00091  -0.1109   0.7752   0.2513
  -2.500   0.3464   0.00511   0.00085  -0.1114   0.7690   0.2979
  -2.000   0.4040   0.00496   0.00081  -0.1116   0.7589   0.3480
  -1.500   0.4614   0.00478   0.00079  -0.1119   0.7429   0.4084
  -1.000   0.5104   0.00518   0.00093  -0.1104   0.6241   0.4789
  -0.500   0.5629   0.00545   0.00111  -0.1098   0.5637   0.5373
   0.000   0.6166   0.00566   0.00127  -0.1093   0.5194   0.5839
   0.500   0.6704   0.00590   0.00145  -0.1088   0.4808   0.6182
   1.000   0.7243   0.00617   0.00164  -0.1083   0.4459   0.6437
   1.500   0.7778   0.00647   0.00184  -0.1078   0.4116   0.6625
   2.000   0.8307   0.00684   0.00207  -0.1071   0.3728   0.6758
   2.500   0.8819   0.00732   0.00235  -0.1062   0.3270   0.6856
   3.000   0.9319   0.00786   0.00268  -0.1050   0.2770   0.6938
   3.500   0.9807   0.00845   0.00305  -0.1037   0.2249   0.7005
   4.500   1.0756   0.00976   0.00394  -0.1007   0.1308   0.7174
   5.000   1.1229   0.01039   0.00443  -0.0992   0.0972   0.7285
   5.500   1.1701   0.01097   0.00496  -0.0976   0.0730   0.7533
   6.000   1.2142   0.01116   0.00554  -0.0954   0.0568   0.9999
   6.500   1.2609   0.01177   0.00608  -0.0937   0.0456   0.9999
   7.000   1.3066   0.01240   0.00666  -0.0920   0.0379   0.9999
   7.500   1.3507   0.01306   0.00728  -0.0899   0.0319   0.9999
   8.000   1.3913   0.01373   0.00793  -0.0872   0.0276   0.9999
   8.500   1.4299   0.01450   0.00869  -0.0842   0.0239   0.9999
   9.000   1.4692   0.01522   0.00942  -0.0815   0.0218   0.9999
   9.500   1.5058   0.01611   0.01033  -0.0784   0.0195   0.9999
  10.000   1.5421   0.01701   0.01125  -0.0754   0.0181   0.9999
  10.500   1.5749   0.01813   0.01241  -0.0720   0.0163   0.9999
  11.000   1.6091   0.01917   0.01350  -0.0691   0.0154   0.9999
  11.500   1.6394   0.02047   0.01483  -0.0657   0.0142   0.9999
  12.000   1.6669   0.02198   0.01640  -0.0621   0.0133   0.9999
  12.500   1.6955   0.02344   0.01794  -0.0590   0.0127   0.9999
  13.000   1.7205   0.02517   0.01974  -0.0555   0.0121   0.9999
  13.500   1.7412   0.02728   0.02191  -0.0519   0.0113   0.9999
  14.000   1.7573   0.02978   0.02452  -0.0481   0.0107   0.9999
  14.500   1.7762   0.03214   0.02699  -0.0450   0.0105   0.9999
  15.000   1.7912   0.03489   0.02984  -0.0418   0.0101   0.9999
