  
       XFOIL         Version 6.99
  
 Calculated polar for: NACA 2412                                       
  
 1 1 Reynolds number fixed          Mach number fixed         
  
 xtrf =   1.000 (top)        1.000 (bottom)  
 Mach =   0.000     Re =     1.521 e 6     Ncrit =   9.000
  
   alpha    CL        CD       CDp       CM     Top_Xtr  Bot_Xtr
  ------ -------- --------- --------- -------- -------- --------
  -5.000  -0.3846   0.00794   0.00267  -0.0439   0.9092   0.0552
  -4.500  -0.3309   0.00763   0.00233  -0.0432   0.8772   0.0677
  -3.500  -0.2231   0.00722   0.00179  -0.0421   0.7912   0.1062
  -3.000  -0.1685   0.00703   0.00159  -0.0417   0.7535   0.1355
  -2.500  -0.1133   0.00684   0.00142  -0.0415   0.7264   0.1716
  -2.000  -0.0575   0.00663   0.00129  -0.0414   0.7058   0.2157
  -1.500  -0.0017   0.00641   0.00118  -0.0413   0.6839   0.2675
  -1.000   0.0542   0.00619   0.00109  -0.0413   0.6590   0.3292
  -0.500   0.1094   0.00596   0.00102  -0.0412   0.6314   0.4082
   0.000   0.1639   0.00566   0.00099  -0.0409   0.6021   0.5265
   0.500   0.2182   0.00538   0.00099  -0.0406   0.5735   0.6449
   1.000   0.2715   0.00516   0.00105  -0.0400   0.5461   0.7717
   1.500   0.3262   0.00518   0.00114  -0.0395   0.5186   0.8285
   2.000   0.3809   0.00523   0.00123  -0.0390   0.4933   0.8733
   2.500   0.4346   0.00534   0.00136  -0.0382   0.4680   0.9110
   3.000   0.4879   0.00548   0.00149  -0.0373   0.4431   0.9437
   3.500   0.5424   0.00570   0.00164  -0.0368   0.4159   0.9691
   4.000   0.6045   0.00599   0.00181  -0.0381   0.3824   0.9843
   4.500   0.6739   0.00641   0.00205  -0.0412   0.3390   0.9933
   5.000   0.7464   0.00691   0.00233  -0.0451   0.2887   0.9974
   5.500   0.8089   0.00749   0.00266  -0.0469   0.2354   1.0000
   6.000   0.8520   0.00808   0.00303  -0.0445   0.1879   1.0000
   6.500   0.8958   0.00873   0.00346  -0.0423   0.1443   1.0000
   7.000   0.9407   0.00939   0.00393  -0.0403   0.1085   1.0000
   7.500   0.9873   0.01006   0.00445  -0.0388   0.0819   1.0000
   8.000   1.0352   0.01071   0.00500  -0.0375   0.0632   1.0000
   8.500   1.0832   0.01139   0.00559  -0.0363   0.0498   1.0000
   9.000   1.1312   0.01206   0.00622  -0.0351   0.0407   1.0000
   9.500   1.1788   0.01275   0.00688  -0.0340   0.0345   1.0000
  10.000   1.2254   0.01349   0.00761  -0.0327   0.0297   1.0000
  10.500   1.2719   0.01420   0.00833  -0.0314   0.0267   1.0000
  11.000   1.3161   0.01502   0.00918  -0.0298   0.0239   1.0000
  11.500   1.3584   0.01592   0.01009  -0.0280   0.0215   1.0000
  12.000   1.3990   0.01684   0.01108  -0.0260   0.0199   1.0000
  12.500   1.4363   0.01783   0.01211  -0.0235   0.0184   1.0000
  13.000   1.4637   0.01910   0.01346  -0.0195   0.0170   1.0000
  13.500   1.4943   0.02023   0.01468  -0.0163   0.0161   1.0000
  14.000   1.5202   0.02174   0.01626  -0.0129   0.0152   1.0000
  14.500   1.5361   0.02404   0.01867  -0.0091   0.0142   1.0000
  15.000   1.5580   0.02615   0.02090  -0.0066   0.0138   1.0000
