  
       XFOIL         Version 6.99
  
 Calculated polar for: NACA 2412                                       
  
 1 1 Reynolds number fixed          Mach number fixed         
  
 xtrf =   1.000 (top)        1.000 (bottom)  
 Mach =   0.000     Re =     2.332 e 6     Ncrit =   9.000
  
   alpha    CL        CD       CDp       CM     Top_Xtr  Bot_Xtr
  ------ -------- --------- --------- -------- -------- --------
  -5.000  -1.1306   0.01311   0.00695   0.0635   0.6542   0.0200
  -4.500  -1.0815   0.01258   0.00640   0.0650   0.6482   0.0218
  -4.000  -1.0320   0.01205   0.00586   0.0664   0.6424   0.0239
  -3.500  -0.9818   0.01159   0.00539   0.0677   0.6350   0.0264
  -3.000  -0.9316   0.01110   0.00492   0.0691   0.6277   0.0303
  -2.500  -0.8807   0.01067   0.00448   0.0703   0.6184   0.0345
  -2.000  -0.8296   0.01026   0.00410   0.0715   0.6096   0.0402
  -1.500  -0.7784   0.00987   0.00372   0.0726   0.5985   0.0476
  -1.000  -0.7271   0.00948   0.00338   0.0738   0.5877   0.0582
  -0.500  -0.6755   0.00912   0.00307   0.0748   0.5758   0.0714
   0.000  -0.6240   0.00876   0.00277   0.0759   0.5627   0.0910
   0.500  -0.5725   0.00841   0.00250   0.0770   0.5482   0.1162
   1.000  -0.5212   0.00804   0.00225   0.0780   0.5347   0.1508
   1.500  -0.4697   0.00769   0.00202   0.0790   0.5209   0.1927
   2.000  -0.4188   0.00729   0.00181   0.0801   0.5068   0.2498
   2.500  -0.3681   0.00687   0.00161   0.0812   0.4925   0.3231
   3.000  -0.3208   0.00617   0.00135   0.0828   0.4783   0.4599
   3.500  -0.2779   0.00499   0.00099   0.0852   0.4642   0.7310
   4.000  -0.2193   0.00511   0.00106   0.0849   0.4504   0.7384
   4.500  -0.1605   0.00529   0.00121   0.0845   0.4356   0.7436
   5.000  -0.1017   0.00555   0.00140   0.0841   0.4193   0.7476
   5.500  -0.0433   0.00567   0.00147   0.0837   0.4010   0.7508
   6.000   0.0149   0.00578   0.00152   0.0833   0.3791   0.7539
   6.500   0.0732   0.00598   0.00168   0.0828   0.3557   0.7570
   7.000   0.1313   0.00631   0.00194   0.0824   0.3270   0.7613
   7.500   0.1893   0.00661   0.00214   0.0819   0.2950   0.7627
   8.000   0.2468   0.00682   0.00223   0.0813   0.2610   0.7621
   8.500   0.3040   0.00710   0.00237   0.0808   0.2228   0.7613
   9.000   0.3608   0.00746   0.00257   0.0802   0.1828   0.7606
   9.500   0.4172   0.00786   0.00282   0.0796   0.1453   0.7599
  10.000   0.4732   0.00832   0.00312   0.0791   0.1121   0.7592
  10.500   0.5290   0.00877   0.00345   0.0786   0.0858   0.7585
  11.000   0.5846   0.00921   0.00380   0.0781   0.0674   0.7578
  11.500   0.6399   0.00970   0.00421   0.0776   0.0530   0.7572
  12.000   0.6950   0.01016   0.00463   0.0770   0.0436   0.7565
  12.500   0.7497   0.01064   0.00509   0.0765   0.0367   0.7559
  13.000   0.8039   0.01118   0.00559   0.0761   0.0312   0.7553
  13.500   0.8574   0.01177   0.00618   0.0756   0.0267   0.7547
  14.000   0.9110   0.01231   0.00673   0.0751   0.0244   0.7541
  14.500   0.9632   0.01298   0.00742   0.0747   0.0217   0.7535
  15.000   1.0149   0.01366   0.00812   0.0743   0.0197   0.7530
