  
       XFOIL         Version 6.99
  
 Calculated polar for: NACA 2412                                       
  
 1 1 Reynolds number fixed          Mach number fixed         
  
 xtrf =   1.000 (top)        1.000 (bottom)  
 Mach =   0.000     Re =     1.521 e 6     Ncrit =   9.000
  
   alpha    CL        CD       CDp       CM     Top_Xtr  Bot_Xtr
  ------ -------- --------- --------- -------- -------- --------
  -5.000  -0.7514   0.01099   0.00463   0.0109   0.7000   0.0329
  -4.500  -0.6979   0.01053   0.00416   0.0115   0.6944   0.0376
  -4.000  -0.6437   0.01005   0.00373   0.0119   0.6885   0.0438
  -3.500  -0.5894   0.00963   0.00333   0.0124   0.6824   0.0520
  -3.000  -0.5346   0.00920   0.00296   0.0128   0.6743   0.0630
  -2.500  -0.4798   0.00881   0.00262   0.0131   0.6657   0.0788
  -2.000  -0.4250   0.00843   0.00233   0.0135   0.6547   0.0996
  -1.500  -0.3701   0.00806   0.00206   0.0138   0.6422   0.1288
  -1.000  -0.3155   0.00769   0.00182   0.0142   0.6280   0.1681
  -0.500  -0.2608   0.00735   0.00162   0.0145   0.6121   0.2150
   0.000  -0.2062   0.00702   0.00145   0.0148   0.5946   0.2734
   0.500  -0.1521   0.00667   0.00130   0.0152   0.5759   0.3476
   1.000  -0.0999   0.00613   0.00114   0.0159   0.5567   0.4773
   1.500  -0.0528   0.00515   0.00098   0.0175   0.5376   0.7483
   2.000   0.0043   0.00519   0.00101   0.0175   0.5182   0.7740
   2.500   0.0620   0.00528   0.00105   0.0174   0.4991   0.7876
   3.000   0.1198   0.00539   0.00110   0.0172   0.4798   0.7974
   3.500   0.1776   0.00550   0.00115   0.0170   0.4605   0.8046
   4.000   0.2351   0.00564   0.00123   0.0168   0.4399   0.8110
   4.500   0.2927   0.00582   0.00134   0.0165   0.4184   0.8175
   5.000   0.3497   0.00594   0.00144   0.0164   0.3929   0.8258
   5.500   0.4066   0.00618   0.00159   0.0162   0.3627   0.8316
   6.000   0.4634   0.00647   0.00175   0.0159   0.3269   0.8335
   6.500   0.5198   0.00683   0.00195   0.0156   0.2871   0.8340
   7.000   0.5753   0.00727   0.00221   0.0154   0.2423   0.8345
   8.000   0.6841   0.00836   0.00293   0.0153   0.1517   0.8370
   8.500   0.7376   0.00895   0.00336   0.0153   0.1147   0.8390
   9.000   0.7907   0.00956   0.00385   0.0154   0.0865   0.8412
   9.500   0.8436   0.01015   0.00436   0.0155   0.0666   0.8438
  10.000   0.8958   0.01079   0.00493   0.0157   0.0518   0.8469
  10.500   0.9481   0.01138   0.00550   0.0158   0.0430   0.8506
  11.000   0.9994   0.01199   0.00613   0.0161   0.0362   0.8562
  11.500   1.0496   0.01266   0.00683   0.0165   0.0311   0.8643
  12.000   1.0987   0.01336   0.00758   0.0171   0.0273   0.8760
  12.500   1.1468   0.01400   0.00834   0.0178   0.0247   0.8958
  13.000   1.1898   0.01481   0.00930   0.0194   0.0221   0.9333
  13.500   1.2376   0.01554   0.01017   0.0201   0.0205   0.9831
  14.000   1.2859   0.01679   0.01147   0.0198   0.0184   1.0001
  14.500   1.3280   0.01769   0.01244   0.0210   0.0175   1.0001
  15.000   1.3658   0.01885   0.01364   0.0226   0.0163   1.0001
