  
       XFOIL         Version 6.99
  
 Calculated polar for: NACA 2412                                       
  
 1 1 Reynolds number fixed          Mach number fixed         
  
 xtrf =   1.000 (top)        1.000 (bottom)  
 Mach =   0.000     Re =     2.332 e 6     Ncrit =   9.000
  
   alpha    CL        CD       CDp       CM     Top_Xtr  Bot_Xtr
  ------ -------- --------- --------- -------- -------- --------
  -5.000   0.8062   0.00708   0.00306  -0.2224   0.7553   0.3158
  -4.500   0.8654   0.00678   0.00285  -0.2230   0.7536   0.3521
  -4.000   0.9247   0.00644   0.00258  -0.2237   0.7509   0.3913
  -3.500   0.9832   0.00619   0.00240  -0.2241   0.7472   0.4329
  -3.000   1.0405   0.00598   0.00230  -0.2243   0.7433   0.4727
  -2.500   1.0977   0.00560   0.00200  -0.2243   0.7361   0.5043
  -2.000   1.1232   0.00665   0.00256  -0.2180   0.5952   0.5257
  -1.500   1.1300   0.00808   0.00361  -0.2079   0.4973   0.5427
  -1.000   1.1431   0.00929   0.00465  -0.1994   0.4472   0.5576
  -0.500   1.1636   0.01069   0.00594  -0.1929   0.4070   0.5711
   0.000   1.1821   0.01254   0.00764  -0.1866   0.3614   0.5841
   0.500   1.2030   0.01439   0.00931  -0.1809   0.3125   0.5951
   1.000   1.2270   0.01602   0.01070  -0.1757   0.2612   0.6044
   1.500   1.2547   0.01737   0.01183  -0.1709   0.2094   0.6139
   2.000   1.2851   0.01860   0.01281  -0.1667   0.1619   0.6215
   2.500   1.3178   0.01971   0.01371  -0.1628   0.1202   0.6291
   3.000   1.3536   0.02071   0.01454  -0.1594   0.0900   0.6358
   3.500   1.3909   0.02166   0.01536  -0.1563   0.0686   0.6415
   4.000   1.4285   0.02259   0.01621  -0.1533   0.0536   0.6472
   4.500   1.4663   0.02354   0.01709  -0.1503   0.0424   0.6527
   5.000   1.5042   0.02450   0.01801  -0.1475   0.0353   0.6566
   5.500   1.5407   0.02554   0.01904  -0.1444   0.0298   0.6598
   6.000   1.5773   0.02659   0.02008  -0.1415   0.0264   0.6631
   6.500   1.6135   0.02766   0.02116  -0.1385   0.0232   0.6664
   7.000   1.6481   0.02885   0.02235  -0.1354   0.0204   0.6688
   7.500   1.6818   0.03007   0.02361  -0.1322   0.0187   0.6708
   8.000   1.7124   0.03153   0.02509  -0.1286   0.0168   0.6729
   8.500   1.7446   0.03288   0.02649  -0.1254   0.0157   0.6752
   9.000   1.7733   0.03448   0.02811  -0.1218   0.0142   0.6779
   9.500   1.8000   0.03623   0.02993  -0.1180   0.0134   0.6795
  10.000   1.8270   0.03797   0.03175  -0.1144   0.0127   0.6808
  10.500   1.8511   0.03996   0.03379  -0.1106   0.0118   0.6825
  11.000   1.8687   0.04248   0.03641  -0.1061   0.0109   0.6842
  11.500   1.8916   0.04460   0.03861  -0.1024   0.0106   0.6862
  12.000   1.9095   0.04719   0.04128  -0.0984   0.0101   0.6880
  12.500   1.9264   0.04993   0.04412  -0.0945   0.0096   0.6892
  13.000   1.9361   0.05336   0.04765  -0.0903   0.0091   0.6904
  13.500   1.9387   0.05761   0.05205  -0.0858   0.0086   0.6919
  14.000   1.9487   0.06131   0.05587  -0.0823   0.0085   0.6936
  14.500   1.9532   0.06572   0.06041  -0.0789   0.0083   0.6948
  15.000   1.9523   0.07104   0.06589  -0.0760   0.0081   0.6958
