  
       XFOIL         Version 6.99
  
 Calculated polar for: NACA 2412                                       
  
 1 1 Reynolds number fixed          Mach number fixed         
  
 xtrf =   1.000 (top)        1.000 (bottom)  
 Mach =   0.000     Re =     1.521 e 6     Ncrit =   9.000
  
   alpha    CL        CD       CDp       CM     Top_Xtr  Bot_Xtr
  ------ -------- --------- --------- -------- -------- --------
  -5.000  -0.6825   0.01039   0.00410   0.0009   0.7094   0.0358
  -4.500  -0.6285   0.01005   0.00373   0.0014   0.7033   0.0408
  -4.000  -0.5739   0.00962   0.00334   0.0018   0.6966   0.0484
  -3.500  -0.5191   0.00920   0.00298   0.0021   0.6899   0.0588
  -3.000  -0.4640   0.00880   0.00265   0.0024   0.6819   0.0725
  -2.500  -0.4088   0.00841   0.00234   0.0027   0.6727   0.0921
  -2.000  -0.3535   0.00804   0.00207   0.0029   0.6617   0.1180
  -1.500  -0.2984   0.00769   0.00183   0.0032   0.6483   0.1525
  -1.000  -0.2432   0.00736   0.00162   0.0034   0.6326   0.1953
  -0.500  -0.1882   0.00703   0.00144   0.0037   0.6154   0.2482
   0.000  -0.1332   0.00672   0.00130   0.0039   0.5965   0.3120
   0.500  -0.0791   0.00634   0.00117   0.0043   0.5766   0.4020
   1.000  -0.0274   0.00570   0.00102   0.0050   0.5560   0.5692
   1.500   0.0232   0.00513   0.00098   0.0061   0.5352   0.7649
   2.000   0.0804   0.00519   0.00101   0.0060   0.5146   0.7867
   2.500   0.1381   0.00529   0.00106   0.0059   0.4944   0.8001
   3.000   0.1954   0.00538   0.00112   0.0058   0.4741   0.8110
   4.000   0.3103   0.00565   0.00127   0.0054   0.4318   0.8265
   4.500   0.3676   0.00582   0.00138   0.0052   0.4078   0.8348
   5.000   0.4239   0.00600   0.00151   0.0052   0.3791   0.8456
   5.500   0.4804   0.00628   0.00167   0.0051   0.3452   0.8525
   6.000   0.5364   0.00660   0.00186   0.0049   0.3057   0.8562
   6.500   0.5918   0.00698   0.00211   0.0048   0.2630   0.8593
   7.000   0.6464   0.00747   0.00242   0.0048   0.2170   0.8630
   7.500   0.7001   0.00805   0.00280   0.0049   0.1703   0.8674
   8.000   0.7532   0.00865   0.00324   0.0050   0.1296   0.8729
   8.500   0.8053   0.00927   0.00373   0.0054   0.0964   0.8808
   9.000   0.8573   0.00987   0.00424   0.0057   0.0730   0.8910
  10.000   0.9581   0.01099   0.00537   0.0071   0.0464   0.9278
  10.500   1.0059   0.01157   0.00599   0.0083   0.0388   0.9573
  11.000   1.0595   0.01223   0.00666   0.0081   0.0330   0.9828
  11.500   1.1202   0.01299   0.00743   0.0061   0.0286   0.9957
  12.000   1.1727   0.01379   0.00825   0.0058   0.0253   1.0001
  12.500   1.2163   0.01462   0.00908   0.0073   0.0226   1.0001
  13.000   1.2605   0.01546   0.00998   0.0086   0.0209   1.0001
  13.500   1.3029   0.01641   0.01096   0.0100   0.0192   1.0001
  14.000   1.3423   0.01754   0.01217   0.0117   0.0178   1.0001
  14.500   1.3816   0.01856   0.01325   0.0134   0.0167   1.0001
  15.000   1.4126   0.01992   0.01467   0.0160   0.0156   1.0001
