  
       XFOIL         Version 6.99
  
 Calculated polar for: NACA 2412                                       
  
 1 1 Reynolds number fixed          Mach number fixed         
  
 xtrf =   1.000 (top)        1.000 (bottom)  
 Mach =   0.000     Re =     1.521 e 6     Ncrit =   9.000
  
   alpha    CL        CD       CDp       CM     Top_Xtr  Bot_Xtr
  ------ -------- --------- --------- -------- -------- --------
  -5.000   0.0569   0.00681   0.00164  -0.1097   0.8113   0.1299
  -4.500   0.1148   0.00657   0.00150  -0.1101   0.8082   0.1621
  -4.000   0.1725   0.00628   0.00137  -0.1105   0.8047   0.2026
  -3.500   0.2304   0.00605   0.00127  -0.1109   0.8004   0.2459
  -3.000   0.2880   0.00585   0.00119  -0.1112   0.7949   0.2945
  -2.500   0.3457   0.00563   0.00115  -0.1115   0.7891   0.3483
  -2.000   0.4031   0.00540   0.00109  -0.1118   0.7811   0.4110
  -1.500   0.4603   0.00518   0.00109  -0.1119   0.7716   0.4872
  -1.000   0.5171   0.00504   0.00109  -0.1120   0.7569   0.5512
  -0.500   0.5690   0.00519   0.00108  -0.1109   0.6718   0.5963
   0.000   0.6172   0.00580   0.00141  -0.1093   0.5887   0.6293
   0.500   0.6694   0.00619   0.00164  -0.1084   0.5381   0.6542
   1.000   0.7221   0.00657   0.00186  -0.1077   0.4959   0.6714
   1.500   0.7747   0.00695   0.00210  -0.1070   0.4582   0.6843
   2.000   0.8273   0.00730   0.00232  -0.1062   0.4226   0.6946
   2.500   0.8788   0.00766   0.00255  -0.1053   0.3831   0.7036
   3.000   0.9287   0.00809   0.00283  -0.1042   0.3369   0.7132
   3.500   0.9768   0.00864   0.00319  -0.1027   0.2844   0.7245
   4.000   1.0231   0.00925   0.00365  -0.1010   0.2293   0.7503
   4.500   1.0670   0.00955   0.00420  -0.0987   0.1763   0.9999
   5.000   1.1119   0.01039   0.00479  -0.0968   0.1304   0.9999
   5.500   1.1569   0.01119   0.00539  -0.0949   0.0965   0.9999
   6.000   1.2017   0.01196   0.00601  -0.0929   0.0723   0.9999
   6.500   1.2456   0.01273   0.00668  -0.0909   0.0557   0.9999
   7.000   1.2889   0.01345   0.00734  -0.0887   0.0454   0.9999
   7.500   1.3288   0.01419   0.00805  -0.0858   0.0381   0.9999
   8.000   1.3676   0.01499   0.00883  -0.0829   0.0326   0.9999
   8.500   1.4049   0.01590   0.00973  -0.0799   0.0282   0.9999
   9.000   1.4424   0.01677   0.01063  -0.0770   0.0255   0.9999
   9.500   1.4776   0.01779   0.01169  -0.0739   0.0230   0.9999
  10.000   1.5110   0.01892   0.01284  -0.0706   0.0208   0.9999
  10.500   1.5427   0.02018   0.01417  -0.0673   0.0193   0.9999
  11.000   1.5737   0.02149   0.01554  -0.0641   0.0179   0.9999
  11.500   1.5975   0.02331   0.01743  -0.0601   0.0164   0.9999
  12.000   1.6264   0.02480   0.01901  -0.0571   0.0157   0.9999
  12.500   1.6511   0.02663   0.02092  -0.0537   0.0148   0.9999
  13.000   1.6694   0.02899   0.02337  -0.0500   0.0139   0.9999
  13.500   1.6836   0.03175   0.02626  -0.0462   0.0132   0.9999
  14.000   1.7008   0.03435   0.02898  -0.0431   0.0128   0.9999
  14.500   1.7136   0.03744   0.03220  -0.0400   0.0123   0.9999
  15.000   1.7222   0.04109   0.03598  -0.0372   0.0119   0.9999
