  
       XFOIL         Version 6.99
  
 Calculated polar for: NACA 2412                                       
  
 1 1 Reynolds number fixed          Mach number fixed         
  
 xtrf =   1.000 (top)        1.000 (bottom)  
 Mach =   0.000     Re =     1.521 e 6     Ncrit =   9.000
  
   alpha    CL        CD       CDp       CM     Top_Xtr  Bot_Xtr
  ------ -------- --------- --------- -------- -------- --------
  -5.000  -0.8832   0.01211   0.00565   0.0296   0.6864   0.0281
  -4.500  -0.8312   0.01152   0.00507   0.0304   0.6810   0.0319
  -4.000  -0.7784   0.01101   0.00456   0.0312   0.6759   0.0362
  -3.500  -0.7251   0.01054   0.00411   0.0319   0.6693   0.0415
  -3.000  -0.6717   0.01008   0.00368   0.0326   0.6619   0.0492
  -2.500  -0.6181   0.00963   0.00329   0.0332   0.6534   0.0599
  -2.000  -0.5644   0.00923   0.00294   0.0338   0.6438   0.0742
  -1.500  -0.5106   0.00883   0.00261   0.0344   0.6323   0.0952
  -1.000  -0.4568   0.00844   0.00233   0.0350   0.6200   0.1226
  -0.500  -0.4031   0.00807   0.00208   0.0355   0.6063   0.1588
   0.000  -0.3495   0.00770   0.00185   0.0361   0.5913   0.2059
   0.500  -0.2960   0.00734   0.00165   0.0366   0.5753   0.2631
   1.000  -0.2431   0.00693   0.00147   0.0373   0.5584   0.3397
   1.500  -0.1930   0.00627   0.00126   0.0383   0.5413   0.4799
   2.000  -0.1475   0.00524   0.00104   0.0403   0.5245   0.7480
   2.500  -0.0897   0.00535   0.00108   0.0402   0.5069   0.7649
   3.000  -0.0321   0.00542   0.00113   0.0401   0.4894   0.7760
   3.500   0.0261   0.00558   0.00120   0.0398   0.4718   0.7819
   4.000   0.0839   0.00564   0.00124   0.0396   0.4542   0.7886
   4.500   0.1417   0.00580   0.00135   0.0393   0.4354   0.7950
   5.000   0.1996   0.00600   0.00147   0.0391   0.4142   0.7988
   5.500   0.2574   0.00611   0.00153   0.0387   0.3907   0.8025
   6.000   0.3144   0.00632   0.00166   0.0385   0.3611   0.8073
   6.500   0.3718   0.00657   0.00179   0.0381   0.3280   0.8072
   7.000   0.4289   0.00686   0.00196   0.0376   0.2914   0.8064
   7.500   0.4853   0.00726   0.00218   0.0372   0.2493   0.8056
   8.000   0.5410   0.00772   0.00247   0.0369   0.2047   0.8049
   8.500   0.5960   0.00826   0.00283   0.0367   0.1613   0.8041
   9.000   0.6504   0.00886   0.00324   0.0365   0.1225   0.8034
   9.500   0.7045   0.00945   0.00369   0.0363   0.0932   0.8028
  10.000   0.7583   0.01005   0.00419   0.0362   0.0710   0.8022
  10.500   0.8115   0.01068   0.00472   0.0361   0.0551   0.8016
  11.000   0.8646   0.01127   0.00528   0.0360   0.0451   0.8011
  11.500   0.9171   0.01189   0.00589   0.0360   0.0378   0.8008
  12.000   0.9688   0.01257   0.00655   0.0361   0.0323   0.8005
  12.500   1.0197   0.01328   0.00727   0.0362   0.0283   0.8003
  13.000   1.0702   0.01397   0.00801   0.0363   0.0255   0.8003
  13.500   1.1183   0.01486   0.00893   0.0367   0.0227   0.8004
  14.000   1.1666   0.01565   0.00978   0.0370   0.0210   0.8007
  14.500   1.2105   0.01679   0.01099   0.0377   0.0190   0.8012
  15.000   1.2559   0.01767   0.01195   0.0382   0.0179   0.8019
