  
       XFOIL         Version 6.99
  
 Calculated polar for: NACA 2412                                       
  
 1 1 Reynolds number fixed          Mach number fixed         
  
 xtrf =   1.000 (top)        1.000 (bottom)  
 Mach =   0.000     Re =     2.332 e 6     Ncrit =   9.000
  
   alpha    CL        CD       CDp       CM     Top_Xtr  Bot_Xtr
  ------ -------- --------- --------- -------- -------- --------
  -5.000  -0.8260   0.01035   0.00436   0.0218   0.6806   0.0271
  -4.500  -0.7721   0.00992   0.00393   0.0224   0.6747   0.0305
  -4.000  -0.7178   0.00954   0.00355   0.0229   0.6683   0.0345
  -3.500  -0.6634   0.00915   0.00318   0.0233   0.6599   0.0398
  -3.000  -0.6088   0.00878   0.00285   0.0238   0.6510   0.0480
  -2.500  -0.5542   0.00843   0.00253   0.0242   0.6401   0.0590
  -2.000  -0.4994   0.00810   0.00225   0.0246   0.6273   0.0731
  -1.500  -0.4444   0.00779   0.00201   0.0250   0.6139   0.0925
  -1.000  -0.3894   0.00750   0.00178   0.0253   0.5988   0.1174
  -0.500  -0.3346   0.00720   0.00158   0.0256   0.5823   0.1513
   0.000  -0.2797   0.00693   0.00141   0.0259   0.5647   0.1922
   0.500  -0.2248   0.00665   0.00127   0.0262   0.5465   0.2427
   1.000  -0.1701   0.00637   0.00115   0.0265   0.5279   0.3055
   1.500  -0.1160   0.00602   0.00103   0.0269   0.5094   0.3933
   2.000  -0.0649   0.00534   0.00087   0.0276   0.4915   0.5711
   2.500  -0.0129   0.00479   0.00080   0.0284   0.4740   0.7507
   3.000   0.0453   0.00488   0.00085   0.0281   0.4566   0.7634
   3.500   0.1035   0.00497   0.00089   0.0278   0.4389   0.7712
   4.000   0.1616   0.00508   0.00096   0.0275   0.4200   0.7773
   4.500   0.2199   0.00524   0.00104   0.0271   0.3980   0.7811
   5.000   0.2775   0.00541   0.00113   0.0268   0.3713   0.7873
   5.500   0.3348   0.00563   0.00126   0.0265   0.3399   0.7923
   6.000   0.3920   0.00590   0.00142   0.0262   0.3060   0.7959
   6.500   0.4487   0.00625   0.00162   0.0259   0.2659   0.7979
   7.000   0.5050   0.00663   0.00183   0.0256   0.2249   0.7976
   7.500   0.5606   0.00709   0.00211   0.0254   0.1812   0.7973
   8.000   0.6158   0.00759   0.00243   0.0252   0.1417   0.7971
   8.500   0.6706   0.00811   0.00279   0.0250   0.1074   0.7970
   9.000   0.7252   0.00863   0.00319   0.0249   0.0822   0.7968
   9.500   0.7793   0.00915   0.00361   0.0248   0.0632   0.7968
  10.000   0.8335   0.00965   0.00404   0.0247   0.0507   0.7967
  10.500   0.8873   0.01016   0.00451   0.0246   0.0418   0.7968
  11.000   0.9404   0.01070   0.00502   0.0246   0.0348   0.7969
  11.500   0.9932   0.01125   0.00556   0.0246   0.0300   0.7971
  12.000   1.0452   0.01184   0.00615   0.0247   0.0261   0.7974
  12.500   1.0959   0.01252   0.00683   0.0250   0.0226   0.7978
  13.000   1.1469   0.01311   0.00745   0.0251   0.0209   0.7982
  13.500   1.1956   0.01390   0.00826   0.0255   0.0187   0.7988
  14.000   1.2445   0.01459   0.00899   0.0259   0.0175   0.7994
  15.000   1.3357   0.01634   0.01086   0.0272   0.0149   0.8043
