  
       XFOIL         Version 6.99
  
 Calculated polar for: NACA 2412                                       
  
 1 1 Reynolds number fixed          Mach number fixed         
  
 xtrf =   1.000 (top)        1.000 (bottom)  
 Mach =   0.000     Re =     1.521 e 6     Ncrit =   9.000
  
   alpha    CL        CD       CDp       CM     Top_Xtr  Bot_Xtr
  ------ -------- --------- --------- -------- -------- --------
  -5.000  -0.3121   0.00766   0.00240  -0.0546   0.8920   0.0627
  -4.900  -0.3011   0.00758   0.00234  -0.0545   0.8882   0.0658
  -4.800  -0.2901   0.00752   0.00228  -0.0545   0.8840   0.0685
  -4.700  -0.2791   0.00748   0.00223  -0.0544   0.8797   0.0704
  -4.600  -0.2681   0.00741   0.00216  -0.0543   0.8758   0.0745
  -4.500  -0.2571   0.00734   0.00211  -0.0543   0.8715   0.0782
  -4.400  -0.2460   0.00730   0.00206  -0.0542   0.8668   0.0810
  -4.300  -0.2351   0.00724   0.00200  -0.0541   0.8624   0.0853
  -4.200  -0.2240   0.00718   0.00195  -0.0541   0.8582   0.0896
  -4.100  -0.2128   0.00713   0.00190  -0.0541   0.8535   0.0930
  -4.000  -0.2018   0.00708   0.00185  -0.0540   0.8485   0.0979
  -3.900  -0.1909   0.00702   0.00180  -0.0539   0.8438   0.1031
  -3.800  -0.1797   0.00698   0.00175  -0.0539   0.8390   0.1070
  -3.700  -0.1687   0.00691   0.00171  -0.0539   0.8338   0.1136
  -3.600  -0.1577   0.00688   0.00166  -0.0538   0.8287   0.1187
  -3.500  -0.1465   0.00683   0.00162  -0.0538   0.8239   0.1241
  -3.400  -0.1355   0.00677   0.00158  -0.0537   0.8183   0.1311
  -3.200  -0.1134   0.00668   0.00150  -0.0536   0.8076   0.1444
  -3.100  -0.1022   0.00665   0.00147  -0.0536   0.8018   0.1502
  -3.000  -0.0913   0.00660   0.00143  -0.0535   0.7961   0.1582
  -2.900  -0.0801   0.00656   0.00140  -0.0535   0.7908   0.1656
  -2.800  -0.0691   0.00651   0.00136  -0.0535   0.7846   0.1742
  -2.700  -0.0581   0.00649   0.00133  -0.0534   0.7787   0.1813
  -2.600  -0.0469   0.00643   0.00130  -0.0534   0.7731   0.1904
  -2.400  -0.0249   0.00636   0.00125  -0.0533   0.7610   0.2085
  -2.300  -0.0137   0.00632   0.00122  -0.0533   0.7546   0.2171
  -2.200  -0.0027   0.00629   0.00120  -0.0532   0.7481   0.2271
  -2.100   0.0084   0.00625   0.00118  -0.0532   0.7422   0.2369
  -1.900   0.0305   0.00620   0.00114  -0.0531   0.7291   0.2575
  -1.800   0.0417   0.00616   0.00112  -0.0531   0.7228   0.2678
  -1.700   0.0528   0.00614   0.00110  -0.0531   0.7160   0.2789
  -1.600   0.0638   0.00610   0.00109  -0.0530   0.7099   0.2903
  -1.500   0.0749   0.00607   0.00107  -0.0530   0.7029   0.3020
  -1.400   0.0859   0.00605   0.00106  -0.0529   0.6963   0.3140
  -1.300   0.0970   0.00601   0.00105  -0.0529   0.6898   0.3273
  -1.200   0.1081   0.00598   0.00103  -0.0529   0.6829   0.3399
  -1.100   0.1191   0.00596   0.00102  -0.0529   0.6767   0.3527
  -1.000   0.1302   0.00592   0.00101  -0.0528   0.6696   0.3670
  -0.900   0.1411   0.00590   0.00100  -0.0528   0.6628   0.3829
  -0.800   0.1522   0.00585   0.00100  -0.0528   0.6563   0.3997
  -0.700   0.1631   0.00581   0.00099  -0.0527   0.6495   0.4190
  -0.600   0.1740   0.00576   0.00098  -0.0527   0.6431   0.4415
  -0.500   0.1849   0.00571   0.00098  -0.0526   0.6360   0.4629
  -0.400   0.1957   0.00567   0.00098  -0.0526   0.6294   0.4855
  -0.300   0.2067   0.00562   0.00098  -0.0525   0.6230   0.5082
  -0.200   0.2176   0.00559   0.00098  -0.0525   0.6160   0.5292
  -0.100   0.2286   0.00555   0.00099  -0.0524   0.6098   0.5502
   0.000   0.2395   0.00552   0.00099  -0.0524   0.6031   0.5700
   0.100   0.2503   0.00549   0.00100  -0.0523   0.5966   0.5894
   0.200   0.2614   0.00546   0.00101  -0.0523   0.5904   0.6087
   0.300   0.2722   0.00544   0.00102  -0.0522   0.5836   0.6280
   0.400   0.2832   0.00542   0.00103  -0.0521   0.5777   0.6462
   0.500   0.2942   0.00539   0.00104  -0.0521   0.5714   0.6651
   0.600   0.3049   0.00539   0.00105  -0.0520   0.5648   0.6836
   0.700   0.3159   0.00536   0.00106  -0.0519   0.5589   0.7019
   0.800   0.3268   0.00534   0.00108  -0.0518   0.5527   0.7194
   0.900   0.3375   0.00533   0.00110  -0.0517   0.5470   0.7369
   1.000   0.3484   0.00531   0.00111  -0.0516   0.5412   0.7541
   1.100   0.3591   0.00529   0.00113  -0.0515   0.5350   0.7723
   1.200   0.3698   0.00528   0.00115  -0.0514   0.5295   0.7894
   1.300   0.3806   0.00526   0.00117  -0.0512   0.5240   0.8065
   1.400   0.3911   0.00526   0.00120  -0.0510   0.5179   0.8232
   1.500   0.4017   0.00526   0.00122  -0.0509   0.5127   0.8396
   1.700   0.4226   0.00526   0.00127  -0.0504   0.5015   0.8705
   1.800   0.4330   0.00526   0.00130  -0.0502   0.4966   0.8846
   1.900   0.4433   0.00526   0.00133  -0.0499   0.4911   0.8985
   2.000   0.4535   0.00528   0.00136  -0.0496   0.4856   0.9106
   2.100   0.4639   0.00531   0.00139  -0.0494   0.4805   0.9223
   2.200   0.4741   0.00532   0.00142  -0.0491   0.4755   0.9332
   2.300   0.4845   0.00536   0.00145  -0.0488   0.4699   0.9425
   2.400   0.4951   0.00540   0.00148  -0.0486   0.4647   0.9514
   2.500   0.5064   0.00543   0.00151  -0.0486   0.4595   0.9584
   2.600   0.5179   0.00548   0.00154  -0.0486   0.4537   0.9651
   2.700   0.5295   0.00553   0.00157  -0.0486   0.4483   0.9707
   2.800   0.5427   0.00557   0.00159  -0.0491   0.4427   0.9748
   2.900   0.5552   0.00563   0.00163  -0.0493   0.4365   0.9791
   3.000   0.5672   0.00568   0.00166  -0.0495   0.4310   0.9831
   3.100   0.5816   0.00573   0.00168  -0.0502   0.4246   0.9852
   3.300   0.6090   0.00585   0.00175  -0.0513   0.4116   0.9895
   3.400   0.6227   0.00592   0.00179  -0.0519   0.4041   0.9914
   3.500   0.6362   0.00598   0.00183  -0.0524   0.3975   0.9931
   3.600   0.6504   0.00605   0.00186  -0.0531   0.3894   0.9941
   3.700   0.6651   0.00612   0.00190  -0.0539   0.3816   0.9950
   3.800   0.6798   0.00620   0.00194  -0.0547   0.3726   0.9959
   3.900   0.6945   0.00628   0.00199  -0.0555   0.3641   0.9970
   4.000   0.7091   0.00638   0.00203  -0.0563   0.3542   0.9980
   4.100   0.7240   0.00646   0.00208  -0.0572   0.3452   0.9991
   4.200   0.7390   0.00656   0.00213  -0.0581   0.3353   1.0000
   4.300   0.7487   0.00664   0.00217  -0.0578   0.3266   1.0000
   4.400   0.7579   0.00672   0.00222  -0.0574   0.3181   1.0000
   4.500   0.7672   0.00681   0.00227  -0.0570   0.3090   1.0000
   4.600   0.7765   0.00690   0.00232  -0.0566   0.3004   1.0000
   4.700   0.7855   0.00701   0.00238  -0.0562   0.2904   1.0000
   4.800   0.7949   0.00709   0.00243  -0.0559   0.2813   1.0000
   4.900   0.8040   0.00720   0.00250  -0.0555   0.2723   1.0000
   5.000   0.8131   0.00731   0.00256  -0.0551   0.2620   1.0000
   5.100   0.8224   0.00741   0.00262  -0.0547   0.2529   1.0000
   5.200   0.8315   0.00754   0.00269  -0.0543   0.2428   1.0000
   5.300   0.8407   0.00765   0.00277  -0.0540   0.2331   1.0000
   5.400   0.8499   0.00777   0.00284  -0.0536   0.2232   1.0000
   5.500   0.8588   0.00791   0.00292  -0.0532   0.2128   1.0000
   5.600   0.8681   0.00803   0.00300  -0.0528   0.2031   1.0000
   5.700   0.8773   0.00815   0.00308  -0.0524   0.1938   1.0000
   5.800   0.8863   0.00831   0.00317  -0.0521   0.1832   1.0000
   5.900   0.8957   0.00843   0.00326  -0.0517   0.1742   1.0000
   6.000   0.9050   0.00857   0.00335  -0.0514   0.1650   1.0000
   6.100   0.9142   0.00872   0.00345  -0.0511   0.1555   1.0000
   6.200   0.9238   0.00884   0.00353  -0.0508   0.1480   1.0000
   6.300   0.9330   0.00900   0.00364  -0.0505   0.1392   1.0000
   6.400   0.9426   0.00913   0.00373  -0.0502   0.1315   1.0000
   6.500   0.9520   0.00928   0.00384  -0.0499   0.1237   1.0000
   6.600   0.9615   0.00942   0.00394  -0.0496   0.1162   1.0000
   6.700   0.9711   0.00956   0.00405  -0.0493   0.1097   1.0000
   6.800   0.9807   0.00970   0.00415  -0.0491   0.1035   1.0000
   6.900   0.9903   0.00984   0.00426  -0.0488   0.0977   1.0000
   7.000   1.0000   0.00997   0.00436  -0.0486   0.0924   1.0000
   7.100   1.0094   0.01013   0.00448  -0.0483   0.0865   1.0000
   7.200   1.0193   0.01025   0.00458  -0.0481   0.0823   1.0000
   7.300   1.0287   0.01041   0.00470  -0.0478   0.0771   1.0000
   7.400   1.0386   0.01053   0.00481  -0.0476   0.0735   1.0000
   7.500   1.0483   0.01066   0.00492  -0.0474   0.0700   1.0000
   7.600   1.0577   0.01081   0.00504  -0.0471   0.0657   1.0000
   7.700   1.0677   0.01092   0.00515  -0.0469   0.0633   1.0000
   7.800   1.0774   0.01106   0.00526  -0.0467   0.0604   1.0000
   7.900   1.0868   0.01122   0.00539  -0.0464   0.0569   1.0000
   8.000   1.0967   0.01133   0.00550  -0.0462   0.0547   1.0000
   8.100   1.1064   0.01146   0.00562  -0.0460   0.0524   1.0000
   8.200   1.1158   0.01161   0.00575  -0.0457   0.0499   1.0000
   8.300   1.1254   0.01175   0.00588  -0.0455   0.0475   1.0000
   8.400   1.1353   0.01186   0.00599  -0.0453   0.0461   1.0000
   8.500   1.1449   0.01200   0.00611  -0.0451   0.0445   1.0000
   8.600   1.1542   0.01215   0.00625  -0.0448   0.0426   1.0000
   8.700   1.1636   0.01230   0.00639  -0.0445   0.0406   1.0000
   8.800   1.1734   0.01241   0.00651  -0.0443   0.0397   1.0000
   8.900   1.1830   0.01254   0.00663  -0.0441   0.0385   1.0000
   9.000   1.1923   0.01269   0.00677  -0.0438   0.0371   1.0000
   9.100   1.2015   0.01286   0.00692  -0.0435   0.0355   1.0000
   9.200   1.2108   0.01300   0.00707  -0.0433   0.0343   1.0000
   9.300   1.2205   0.01312   0.00719  -0.0430   0.0336   1.0000
   9.400   1.2299   0.01325   0.00732  -0.0428   0.0327   1.0000
   9.500   1.2392   0.01340   0.00747  -0.0425   0.0318   1.0000
   9.600   1.2481   0.01357   0.00762  -0.0422   0.0308   1.0000
   9.700   1.2569   0.01375   0.00780  -0.0418   0.0297   1.0000
   9.800   1.2661   0.01389   0.00795  -0.0416   0.0290   1.0000
   9.900   1.2755   0.01402   0.00808  -0.0413   0.0285   1.0000
  10.000   1.2847   0.01415   0.00823  -0.0410   0.0279   1.0000
  10.100   1.2938   0.01430   0.00838  -0.0407   0.0273   1.0000
  10.200   1.3026   0.01447   0.00854  -0.0404   0.0267   1.0000
  10.300   1.3112   0.01465   0.00872  -0.0400   0.0259   1.0000
  10.400   1.3194   0.01485   0.00892  -0.0396   0.0251   1.0000
  10.500   1.3279   0.01503   0.00911  -0.0392   0.0245   1.0000
  10.600   1.3370   0.01516   0.00925  -0.0389   0.0242   1.0000
  10.700   1.3459   0.01530   0.00940  -0.0386   0.0238   1.0000
  10.800   1.3545   0.01545   0.00956  -0.0383   0.0233   1.0000
  10.900   1.3630   0.01562   0.00973  -0.0379   0.0229   1.0000
  11.000   1.3713   0.01580   0.00991  -0.0375   0.0224   1.0000
  11.100   1.3793   0.01599   0.01010  -0.0370   0.0219   1.0000
  11.200   1.3869   0.01621   0.01032  -0.0365   0.0214   1.0000
  11.300   1.3939   0.01646   0.01059  -0.0359   0.0208   1.0000
  11.400   1.4018   0.01665   0.01079  -0.0355   0.0205   1.0000
  11.500   1.4100   0.01681   0.01096  -0.0351   0.0203   1.0000
  11.600   1.4180   0.01697   0.01113  -0.0346   0.0201   1.0000
  11.700   1.4258   0.01714   0.01132  -0.0341   0.0198   1.0000
  11.800   1.4331   0.01732   0.01151  -0.0336   0.0196   1.0000
  11.900   1.4399   0.01750   0.01170  -0.0329   0.0193   1.0000
  12.000   1.4464   0.01770   0.01191  -0.0322   0.0190   1.0000
  12.100   1.4527   0.01791   0.01213  -0.0315   0.0187   1.0000
  12.200   1.4588   0.01813   0.01236  -0.0308   0.0184   1.0000
  12.300   1.4645   0.01837   0.01261  -0.0300   0.0181   1.0000
  12.400   1.4698   0.01865   0.01289  -0.0292   0.0178   1.0000
  12.500   1.4743   0.01897   0.01323  -0.0282   0.0174   1.0000
  12.600   1.4792   0.01927   0.01355  -0.0274   0.0171   1.0000
  12.700   1.4859   0.01947   0.01377  -0.0268   0.0170   1.0000
  12.800   1.4923   0.01968   0.01400  -0.0262   0.0169   1.0000
  12.900   1.4984   0.01991   0.01425  -0.0256   0.0167   1.0000
  13.000   1.5047   0.02014   0.01449  -0.0250   0.0165   1.0000
  13.100   1.5106   0.02039   0.01476  -0.0243   0.0163   1.0000
  13.200   1.5163   0.02066   0.01504  -0.0237   0.0161   1.0000
  13.300   1.5219   0.02094   0.01534  -0.0230   0.0160   1.0000
  13.400   1.5273   0.02123   0.01565  -0.0224   0.0158   1.0000
  13.500   1.5324   0.02154   0.01597  -0.0217   0.0156   1.0000
  13.600   1.5374   0.02186   0.01631  -0.0210   0.0154   1.0000
  13.700   1.5422   0.02221   0.01667  -0.0204   0.0152   1.0000
  13.800   1.5466   0.02258   0.01706  -0.0197   0.0150   1.0000
  13.900   1.5507   0.02298   0.01747  -0.0190   0.0148   1.0000
  14.000   1.5541   0.02343   0.01794  -0.0182   0.0147   1.0000
  14.100   1.5568   0.02394   0.01848  -0.0174   0.0144   1.0000
  14.200   1.5585   0.02453   0.01910  -0.0165   0.0142   1.0000
  14.300   1.5620   0.02501   0.01961  -0.0159   0.0141   1.0000
  14.400   1.5668   0.02539   0.02001  -0.0154   0.0140   1.0000
  14.500   1.5712   0.02581   0.02045  -0.0148   0.0139   1.0000
  14.600   1.5758   0.02622   0.02089  -0.0143   0.0138   1.0000
  14.700   1.5799   0.02667   0.02137  -0.0138   0.0138   1.0000
  14.800   1.5841   0.02714   0.02185  -0.0134   0.0137   1.0000
  14.900   1.5879   0.02763   0.02237  -0.0129   0.0136   1.0000
  15.000   1.5916   0.02814   0.02291  -0.0124   0.0135   1.0000
