  
       XFOIL         Version 6.99
  
 Calculated polar for: NACA 2412                                       
  
 1 1 Reynolds number fixed          Mach number fixed         
  
 xtrf =   1.000 (top)        1.000 (bottom)  
 Mach =   0.000     Re =     1.521 e 6     Ncrit =   9.000
  
   alpha    CL        CD       CDp       CM     Top_Xtr  Bot_Xtr
  ------ -------- --------- --------- -------- -------- --------
  -5.000  -0.9461   0.01263   0.00615   0.0383   0.6803   0.0266
  -4.500  -0.8942   0.01212   0.00562   0.0392   0.6759   0.0290
  -4.000  -0.8425   0.01155   0.00507   0.0402   0.6698   0.0331
  -3.500  -0.7903   0.01102   0.00455   0.0411   0.6640   0.0381
  -3.000  -0.7376   0.01054   0.00410   0.0419   0.6564   0.0446
  -2.500  -0.6847   0.01010   0.00368   0.0427   0.6484   0.0531
  -2.000  -0.6315   0.00968   0.00331   0.0434   0.6387   0.0645
  -1.500  -0.5784   0.00926   0.00296   0.0442   0.6284   0.0815
  -1.000  -0.5252   0.00888   0.00264   0.0449   0.6164   0.1037
  -0.500  -0.4721   0.00848   0.00236   0.0456   0.6032   0.1354
   0.000  -0.4192   0.00809   0.00210   0.0463   0.5893   0.1764
   0.500  -0.3663   0.00771   0.00188   0.0470   0.5744   0.2277
   1.000  -0.3138   0.00730   0.00168   0.0477   0.5585   0.2929
   1.500  -0.2625   0.00680   0.00148   0.0486   0.5423   0.3888
   2.000  -0.2238   0.00529   0.00114   0.0518   0.5269   0.6973
   2.500  -0.1659   0.00534   0.00111   0.0516   0.5102   0.7552
   3.000  -0.1078   0.00549   0.00117   0.0514   0.4933   0.7656
   3.500  -0.0500   0.00557   0.00123   0.0512   0.4767   0.7740
   4.000   0.0082   0.00573   0.00132   0.0510   0.4598   0.7796
   4.500   0.0661   0.00583   0.00138   0.0507   0.4423   0.7855
   5.000   0.1240   0.00597   0.00148   0.0505   0.4233   0.7901
   5.500   0.1819   0.00614   0.00158   0.0501   0.4016   0.7931
   6.000   0.2397   0.00636   0.00174   0.0498   0.3762   0.7969
   6.500   0.2973   0.00660   0.00188   0.0494   0.3460   0.7977
   7.000   0.3547   0.00683   0.00199   0.0489   0.3118   0.7970
   7.500   0.4117   0.00713   0.00216   0.0485   0.2738   0.7962
   8.000   0.4680   0.00753   0.00239   0.0480   0.2311   0.7953
   8.500   0.5236   0.00801   0.00269   0.0477   0.1869   0.7945
   9.000   0.5786   0.00855   0.00305   0.0474   0.1455   0.7937
   9.500   0.6332   0.00912   0.00346   0.0471   0.1103   0.7929
  10.000   0.6875   0.00970   0.00391   0.0469   0.0835   0.7921
  10.500   0.7413   0.01029   0.00441   0.0466   0.0641   0.7914
  11.000   0.7951   0.01086   0.00492   0.0464   0.0516   0.7907
  11.500   0.8483   0.01146   0.00549   0.0463   0.0426   0.7901
  12.000   0.9009   0.01209   0.00611   0.0462   0.0359   0.7895
  12.500   0.9530   0.01275   0.00677   0.0461   0.0312   0.7889
  13.000   1.0038   0.01349   0.00753   0.0461   0.0274   0.7883
  13.500   1.0537   0.01429   0.00834   0.0462   0.0243   0.7877
  14.000   1.1030   0.01507   0.00919   0.0463   0.0223   0.7872
  14.500   1.1499   0.01605   0.01020   0.0466   0.0203   0.7868
  15.000   1.1958   0.01705   0.01128   0.0470   0.0188   0.7863
