  
       XFOIL         Version 6.99
  
 Calculated polar for: NACA 2412                                       
  
 1 1 Reynolds number fixed          Mach number fixed         
  
 xtrf =   1.000 (top)        1.000 (bottom)  
 Mach =   0.000     Re =     2.332 e 6     Ncrit =   9.000
  
   alpha    CL        CD       CDp       CM     Top_Xtr  Bot_Xtr
  ------ -------- --------- --------- -------- -------- --------
  -5.000  -0.6174   0.00908   0.00323  -0.0083   0.7033   0.0344
  -4.500  -0.5619   0.00871   0.00290  -0.0081   0.6978   0.0396
  -4.000  -0.5064   0.00837   0.00258  -0.0079   0.6907   0.0477
  -3.500  -0.4505   0.00801   0.00229  -0.0078   0.6824   0.0583
  -3.000  -0.3946   0.00769   0.00202  -0.0077   0.6724   0.0719
  -2.500  -0.3386   0.00739   0.00178  -0.0076   0.6594   0.0906
  -2.000  -0.2826   0.00712   0.00157  -0.0075   0.6440   0.1142
  -1.500  -0.2266   0.00686   0.00139  -0.0074   0.6264   0.1451
  -1.000  -0.1707   0.00660   0.00123  -0.0073   0.6068   0.1858
  -0.500  -0.1149   0.00637   0.00111  -0.0072   0.5853   0.2322
   0.000  -0.0591   0.00617   0.00101  -0.0071   0.5629   0.2876
   0.500  -0.0033   0.00594   0.00094  -0.0071   0.5415   0.3554
   1.000   0.0513   0.00559   0.00087  -0.0069   0.5195   0.4660
   1.500   0.1045   0.00508   0.00079  -0.0065   0.4979   0.6314
   2.000   0.1588   0.00479   0.00083  -0.0060   0.4778   0.7658
   2.500   0.2164   0.00487   0.00088  -0.0062   0.4577   0.7848
   3.000   0.2740   0.00496   0.00094  -0.0064   0.4370   0.7986
   4.000   0.3889   0.00527   0.00112  -0.0069   0.3876   0.8175
   4.500   0.4456   0.00547   0.00124  -0.0070   0.3559   0.8269
   5.500   0.5572   0.00606   0.00161  -0.0070   0.2798   0.8519
   6.000   0.6118   0.00645   0.00186  -0.0069   0.2357   0.8639
   6.500   0.6664   0.00694   0.00216  -0.0069   0.1901   0.8704
   7.000   0.7199   0.00745   0.00252  -0.0066   0.1474   0.8809
   7.500   0.7730   0.00796   0.00290  -0.0064   0.1122   0.8930
   8.000   0.8255   0.00846   0.00332  -0.0060   0.0855   0.9090
   8.500   0.8769   0.00894   0.00376  -0.0053   0.0660   0.9297
   9.000   0.9268   0.00945   0.00424  -0.0043   0.0519   0.9545
   9.500   0.9784   0.00995   0.00473  -0.0037   0.0423   0.9780
  10.000   1.0369   0.01051   0.00526  -0.0049   0.0351   0.9914
  11.000   1.1505   0.01178   0.00647  -0.0067   0.0256   1.0001
  11.500   1.1972   0.01238   0.00707  -0.0055   0.0229   1.0001
  12.000   1.2444   0.01304   0.00774  -0.0044   0.0207   1.0001
  12.500   1.2906   0.01379   0.00850  -0.0033   0.0187   1.0001
  13.000   1.3363   0.01454   0.00929  -0.0022   0.0173   1.0001
  13.500   1.3805   0.01536   0.01012  -0.0010   0.0159   1.0001
  14.000   1.4214   0.01637   0.01118   0.0007   0.0146   1.0001
  14.500   1.4624   0.01726   0.01212   0.0022   0.0139   1.0001
  15.000   1.4986   0.01833   0.01324   0.0044   0.0131   1.0001
