  
       XFOIL         Version 6.99
  
 Calculated polar for: NACA 2412                                       
  
 1 1 Reynolds number fixed          Mach number fixed         
  
 xtrf =   1.000 (top)        1.000 (bottom)  
 Mach =   0.000     Re =     2.332 e 6     Ncrit =   9.000
  
   alpha    CL        CD       CDp       CM     Top_Xtr  Bot_Xtr
  ------ -------- --------- --------- -------- -------- --------
  -5.000   0.5858   0.00633   0.00200  -0.1895   0.7601   0.2532
  -4.500   0.6442   0.00618   0.00197  -0.1900   0.7586   0.2942
  -4.000   0.7028   0.00592   0.00184  -0.1905   0.7573   0.3343
  -3.500   0.7612   0.00568   0.00171  -0.1910   0.7546   0.3752
  -3.000   0.8194   0.00544   0.00159  -0.1914   0.7508   0.4213
  -2.500   0.8769   0.00530   0.00153  -0.1916   0.7452   0.4691
  -2.000   0.9346   0.00510   0.00147  -0.1918   0.7386   0.5080
  -1.500   0.9687   0.00608   0.00194  -0.1873   0.5909   0.5348
  -1.000   1.0030   0.00703   0.00255  -0.1829   0.5015   0.5566
  -0.500   1.0412   0.00768   0.00301  -0.1792   0.4484   0.5756
   0.000   1.0780   0.00825   0.00346  -0.1752   0.4075   0.5913
   0.500   1.1044   0.00901   0.00406  -0.1692   0.3631   0.6048
   1.000   1.1343   0.00997   0.00484  -0.1642   0.3146   0.6165
   1.500   1.1634   0.01109   0.00573  -0.1593   0.2633   0.6262
   2.000   1.1944   0.01224   0.00666  -0.1549   0.2115   0.6355
   2.500   1.2279   0.01336   0.00755  -0.1511   0.1641   0.6429
   3.000   1.2625   0.01447   0.00844  -0.1474   0.1224   0.6501
   3.500   1.3001   0.01545   0.00926  -0.1443   0.0920   0.6560
   4.000   1.3380   0.01642   0.01011  -0.1413   0.0697   0.6617
   4.500   1.3767   0.01736   0.01096  -0.1385   0.0550   0.6672
   5.000   1.4156   0.01830   0.01182  -0.1357   0.0435   0.6709
   5.500   1.4539   0.01924   0.01274  -0.1329   0.0363   0.6737
   6.000   1.4917   0.02022   0.01370  -0.1301   0.0307   0.6768
   6.500   1.5294   0.02121   0.01467  -0.1273   0.0268   0.6800
   7.000   1.5657   0.02226   0.01573  -0.1244   0.0238   0.6822
   7.500   1.6007   0.02340   0.01689  -0.1213   0.0211   0.6843
   8.000   1.6353   0.02456   0.01807  -0.1182   0.0192   0.6868
   8.500   1.6670   0.02589   0.01942  -0.1148   0.0173   0.6894
   9.000   1.6994   0.02717   0.02075  -0.1116   0.0161   0.6913
   9.500   1.7266   0.02884   0.02246  -0.1079   0.0144   0.6932
  10.000   1.7568   0.03027   0.02397  -0.1046   0.0139   0.6955
  10.500   1.7831   0.03201   0.02576  -0.1009   0.0131   0.6975
  11.000   1.8068   0.03398   0.02779  -0.0971   0.0121   0.6993
  11.500   1.8281   0.03614   0.03005  -0.0932   0.0114   0.7010
  12.000   1.8513   0.03819   0.03219  -0.0896   0.0110   0.7028
  12.500   1.8695   0.04070   0.03478  -0.0857   0.0105   0.7046
  13.000   1.8855   0.04345   0.03762  -0.0819   0.0099   0.7062
  13.500   1.8940   0.04695   0.04125  -0.0776   0.0093   0.7076
  14.000   1.9042   0.05044   0.04488  -0.0739   0.0090   0.7093
  14.500   1.9135   0.05415   0.04872  -0.0706   0.0088   0.7108
  15.000   1.9190   0.05841   0.05311  -0.0674   0.0086   0.7118
