  
       XFOIL         Version 6.99
  
 Calculated polar for: NACA 2412                                       
  
 1 1 Reynolds number fixed          Mach number fixed         
  
 xtrf =   1.000 (top)        1.000 (bottom)  
 Mach =   0.000     Re =     1.521 e 6     Ncrit =   9.000
  
   alpha    CL        CD       CDp       CM     Top_Xtr  Bot_Xtr
  ------ -------- --------- --------- -------- -------- --------
  -4.500  -0.4847   0.00888   0.00289  -0.0197   0.7352   0.0516
  -4.000  -0.4298   0.00859   0.00258  -0.0194   0.7220   0.0622
  -3.500  -0.3747   0.00830   0.00231  -0.0192   0.7114   0.0775
  -3.000  -0.3193   0.00803   0.00208  -0.0190   0.7016   0.0972
  -2.500  -0.2634   0.00768   0.00185  -0.0189   0.6907   0.1251
  -2.000  -0.2075   0.00734   0.00164  -0.0188   0.6780   0.1614
  -1.500  -0.1516   0.00703   0.00146  -0.0187   0.6624   0.2048
  -1.000  -0.0960   0.00674   0.00130  -0.0186   0.6436   0.2577
  -0.500  -0.0404   0.00647   0.00118  -0.0185   0.6227   0.3208
   0.000   0.0147   0.00616   0.00108  -0.0184   0.5997   0.4044
   0.500   0.0681   0.00571   0.00100  -0.0180   0.5756   0.5448
   1.000   0.1191   0.00509   0.00097  -0.0170   0.5526   0.7535
   1.500   0.1752   0.00511   0.00102  -0.0168   0.5285   0.7951
   2.000   0.2320   0.00520   0.00107  -0.0167   0.5056   0.8183
   2.500   0.2888   0.00530   0.00114  -0.0167   0.4828   0.8368
   3.500   0.4018   0.00555   0.00133  -0.0167   0.4371   0.8679
   4.000   0.4577   0.00572   0.00145  -0.0165   0.4109   0.8831
   4.500   0.5127   0.00591   0.00160  -0.0163   0.3806   0.9025
   5.000   0.5657   0.00617   0.00180  -0.0155   0.3450   0.9266
   5.500   0.6175   0.00649   0.00204  -0.0145   0.3057   0.9488
   6.000   0.6700   0.00693   0.00232  -0.0139   0.2609   0.9652
   6.500   0.7256   0.00749   0.00267  -0.0141   0.2116   0.9787
   7.000   0.7856   0.00817   0.00312  -0.0154   0.1613   0.9875
   7.500   0.8468   0.00891   0.00363  -0.0172   0.1174   0.9939
   8.000   0.9115   0.00961   0.00416  -0.0197   0.0861   0.9969
   8.500   0.9736   0.01031   0.00473  -0.0217   0.0644   1.0000
   9.000   1.0149   0.01091   0.00526  -0.0191   0.0514   1.0000
   9.500   1.0589   0.01154   0.00583  -0.0171   0.0420   1.0000
  10.000   1.1051   0.01220   0.00646  -0.0156   0.0356   1.0000
  10.500   1.1520   0.01288   0.00713  -0.0144   0.0308   1.0000
  11.000   1.1991   0.01356   0.00784  -0.0133   0.0276   1.0000
  11.500   1.2446   0.01436   0.00866  -0.0120   0.0246   1.0000
  12.000   1.2889   0.01522   0.00953  -0.0106   0.0220   1.0000
  12.500   1.3320   0.01610   0.01047  -0.0091   0.0203   1.0000
  13.000   1.3728   0.01708   0.01148  -0.0073   0.0188   1.0000
  13.500   1.4089   0.01827   0.01275  -0.0049   0.0174   1.0000
  14.000   1.4427   0.01930   0.01385  -0.0022   0.0164   1.0000
  14.500   1.4685   0.02067   0.01529   0.0014   0.0154   1.0000
  15.000   1.4853   0.02279   0.01753   0.0053   0.0144   1.0000
