  
       XFOIL         Version 6.99
  
 Calculated polar for: NACA 2412                                       
  
 1 1 Reynolds number fixed          Mach number fixed         
  
 xtrf =   1.000 (top)        1.000 (bottom)  
 Mach =   0.000     Re =     1.521 e 6     Ncrit =   9.000
  
   alpha    CL        CD       CDp       CM     Top_Xtr  Bot_Xtr
  ------ -------- --------- --------- -------- -------- --------
  -5.000   0.7247   0.00835   0.00398  -0.2104   0.7711   0.3307
  -4.500   0.7834   0.00806   0.00380  -0.2110   0.7692   0.3716
  -4.000   0.8424   0.00776   0.00361  -0.2115   0.7669   0.4153
  -3.500   0.9023   0.00740   0.00332  -0.2122   0.7636   0.4613
  -3.000   0.9597   0.00745   0.00345  -0.2124   0.7593   0.4996
  -2.500   1.0174   0.00698   0.00307  -0.2125   0.7555   0.5291
  -2.000   1.0750   0.00654   0.00267  -0.2125   0.7478   0.5532
  -1.500   1.1303   0.00628   0.00249  -0.2121   0.7365   0.5723
  -1.000   1.1305   0.00795   0.00347  -0.2005   0.5578   0.5847
  -0.500   1.1339   0.00932   0.00459  -0.1898   0.4910   0.5967
   0.000   1.1496   0.01083   0.00594  -0.1824   0.4434   0.6074
   0.500   1.1712   0.01245   0.00740  -0.1765   0.4008   0.6175
   1.000   1.1952   0.01409   0.00888  -0.1712   0.3540   0.6264
   1.500   1.2187   0.01574   0.01026  -0.1659   0.2989   0.6343
   2.000   1.2454   0.01719   0.01146  -0.1611   0.2440   0.6411
   2.500   1.2753   0.01847   0.01245  -0.1567   0.1894   0.6478
   3.000   1.3072   0.01967   0.01339  -0.1527   0.1408   0.6531
   3.500   1.3413   0.02082   0.01433  -0.1491   0.1036   0.6579
   4.000   1.3770   0.02191   0.01526  -0.1458   0.0779   0.6638
   4.500   1.4131   0.02299   0.01623  -0.1427   0.0592   0.6668
   5.000   1.4502   0.02402   0.01722  -0.1397   0.0479   0.6700
   5.500   1.4869   0.02510   0.01825  -0.1367   0.0393   0.6737
   6.000   1.5227   0.02622   0.01936  -0.1337   0.0334   0.6769
   6.500   1.5572   0.02743   0.02058  -0.1305   0.0290   0.6791
   7.000   1.5902   0.02876   0.02191  -0.1272   0.0250   0.6821
   7.500   1.6243   0.03000   0.02319  -0.1242   0.0229   0.6854
   8.000   1.6540   0.03155   0.02478  -0.1206   0.0206   0.6876
   8.500   1.6849   0.03303   0.02633  -0.1173   0.0191   0.6903
   9.000   1.7106   0.03491   0.02825  -0.1134   0.0172   0.6930
   9.500   1.7382   0.03661   0.03005  -0.1099   0.0163   0.6954
  10.000   1.7633   0.03856   0.03208  -0.1062   0.0153   0.6978
  10.500   1.7810   0.04114   0.03474  -0.1018   0.0140   0.7002
  11.000   1.8024   0.04343   0.03715  -0.0980   0.0135   0.7025
  11.500   1.8217   0.04594   0.03978  -0.0943   0.0129   0.7045
  12.000   1.8370   0.04888   0.04282  -0.0903   0.0123   0.7065
  12.500   1.8457   0.05251   0.04658  -0.0861   0.0116   0.7086
  13.000   1.8500   0.05671   0.05094  -0.0820   0.0110   0.7103
  13.500   1.8592   0.06061   0.05500  -0.0787   0.0107   0.7120
  14.000   1.8622   0.06537   0.05993  -0.0755   0.0104   0.7134
  14.500   1.8605   0.07103   0.06577  -0.0731   0.0101   0.7153
  15.000   1.8546   0.07771   0.07263  -0.0716   0.0098   0.7169
