  
       XFOIL         Version 6.99
  
 Calculated polar for: NACA 2412                                       
  
 1 1 Reynolds number fixed          Mach number fixed         
  
 xtrf =   1.000 (top)        1.000 (bottom)  
 Mach =   0.000     Re =     1.521 e 6     Ncrit =   9.000
  
   alpha    CL        CD       CDp       CM     Top_Xtr  Bot_Xtr
  ------ -------- --------- --------- -------- -------- --------
  -5.000  -0.0180   0.00691   0.00171  -0.0984   0.8212   0.1121
  -4.500   0.0395   0.00663   0.00153  -0.0987   0.8169   0.1417
  -4.000   0.0969   0.00640   0.00138  -0.0990   0.8114   0.1764
  -3.500   0.1545   0.00613   0.00127  -0.0994   0.8064   0.2194
  -3.000   0.2121   0.00588   0.00117  -0.0997   0.8001   0.2659
  -2.500   0.2694   0.00569   0.00110  -0.0999   0.7921   0.3186
  -2.000   0.3268   0.00546   0.00105  -0.1001   0.7831   0.3768
  -1.500   0.3837   0.00522   0.00102  -0.1003   0.7714   0.4530
  -1.000   0.4404   0.00503   0.00101  -0.1003   0.7538   0.5301
  -0.500   0.4914   0.00524   0.00104  -0.0991   0.6628   0.5865
   0.000   0.5425   0.00565   0.00128  -0.0981   0.5951   0.6288
   0.500   0.5959   0.00597   0.00147  -0.0975   0.5484   0.6583
   1.000   0.6495   0.00630   0.00166  -0.0969   0.5082   0.6788
   1.500   0.7035   0.00661   0.00184  -0.0964   0.4725   0.6933
   2.000   0.7570   0.00690   0.00202  -0.0959   0.4382   0.7051
   2.500   0.8098   0.00716   0.00221  -0.0953   0.4029   0.7172
   3.500   0.9120   0.00747   0.00283  -0.0933   0.3118   0.9999
   4.000   0.9606   0.00810   0.00321  -0.0920   0.2597   0.9999
   4.500   1.0079   0.00884   0.00367  -0.0904   0.2049   0.9999
   5.000   1.0542   0.00965   0.00420  -0.0888   0.1545   0.9999
   5.500   1.1001   0.01046   0.00478  -0.0871   0.1128   0.9999
   6.000   1.1465   0.01121   0.00537  -0.0855   0.0843   0.9999
   6.500   1.1924   0.01196   0.00599  -0.0837   0.0642   0.9999
   7.000   1.2377   0.01269   0.00664  -0.0820   0.0506   0.9999
   7.500   1.2819   0.01344   0.00733  -0.0800   0.0411   0.9999
   8.000   1.3247   0.01420   0.00806  -0.0778   0.0345   0.9999
   8.500   1.3646   0.01494   0.00880  -0.0751   0.0303   0.9999
   9.000   1.4026   0.01574   0.00963  -0.0721   0.0270   0.9999
   9.500   1.4379   0.01672   0.01062  -0.0688   0.0239   0.9999
  10.000   1.4739   0.01765   0.01159  -0.0658   0.0219   0.9999
  10.500   1.5056   0.01886   0.01284  -0.0623   0.0199   0.9999
  11.000   1.5386   0.01999   0.01404  -0.0592   0.0187   0.9999
  11.500   1.5660   0.02151   0.01561  -0.0556   0.0171   0.9999
  12.000   1.5936   0.02304   0.01724  -0.0522   0.0162   0.9999
  12.500   1.6203   0.02468   0.01896  -0.0490   0.0153   0.9999
  13.000   1.6416   0.02676   0.02111  -0.0454   0.0144   0.9999
  13.500   1.6561   0.02943   0.02392  -0.0416   0.0136   0.9999
  14.000   1.6754   0.03184   0.02644  -0.0386   0.0131   0.9999
  14.500   1.6901   0.03471   0.02944  -0.0356   0.0126   0.9999
  15.000   1.7007   0.03808   0.03293  -0.0327   0.0122   0.9999
