  
       XFOIL         Version 6.99
  
 Calculated polar for: NACA 2412                                       
  
 1 1 Reynolds number fixed          Mach number fixed         
  
 xtrf =   1.000 (top)        1.000 (bottom)  
 Mach =   0.000     Re =     2.332 e 6     Ncrit =   9.000
  
   alpha    CL        CD       CDp       CM     Top_Xtr  Bot_Xtr
  ------ -------- --------- --------- -------- -------- --------
  -5.000  -0.6884   0.00948   0.00358   0.0020   0.6944   0.0320
  -4.500  -0.6334   0.00909   0.00322   0.0023   0.6891   0.0367
  -4.000  -0.5781   0.00872   0.00287   0.0026   0.6822   0.0429
  -3.500  -0.5227   0.00836   0.00256   0.0028   0.6742   0.0515
  -3.000  -0.4671   0.00803   0.00227   0.0030   0.6642   0.0625
  -2.500  -0.4113   0.00773   0.00201   0.0032   0.6517   0.0773
  -2.000  -0.3557   0.00742   0.00177   0.0034   0.6377   0.0979
  -1.500  -0.3001   0.00714   0.00157   0.0036   0.6216   0.1255
  -1.000  -0.2444   0.00689   0.00139   0.0037   0.6036   0.1588
   0.000  -0.1332   0.00639   0.00112   0.0040   0.5643   0.2539
   0.500  -0.0777   0.00615   0.00102   0.0042   0.5436   0.3148
   1.000  -0.0226   0.00587   0.00094   0.0043   0.5227   0.3977
   1.500   0.0305   0.00536   0.00085   0.0047   0.5024   0.5499
   2.000   0.0823   0.00475   0.00079   0.0055   0.4829   0.7527
   2.500   0.1400   0.00482   0.00084   0.0053   0.4640   0.7727
   3.000   0.1981   0.00493   0.00089   0.0050   0.4447   0.7840
   3.500   0.2557   0.00503   0.00096   0.0048   0.4241   0.7936
   4.000   0.3135   0.00521   0.00104   0.0045   0.3997   0.7998
   4.500   0.3709   0.00537   0.00114   0.0043   0.3715   0.8067
   5.000   0.4277   0.00561   0.00128   0.0041   0.3387   0.8148
   5.500   0.4840   0.00590   0.00145   0.0040   0.3013   0.8236
   6.000   0.5398   0.00623   0.00166   0.0039   0.2613   0.8308
   6.500   0.5954   0.00667   0.00192   0.0037   0.2171   0.8329
   7.000   0.6503   0.00716   0.00222   0.0037   0.1739   0.8346
   7.500   0.7044   0.00770   0.00258   0.0037   0.1328   0.8377
   8.000   0.7583   0.00822   0.00297   0.0038   0.1010   0.8420
   8.500   0.8119   0.00875   0.00339   0.0039   0.0765   0.8468
   9.000   0.8653   0.00928   0.00383   0.0040   0.0593   0.8519
   9.500   0.9183   0.00976   0.00429   0.0042   0.0479   0.8606
  10.500   1.0224   0.01079   0.00532   0.0048   0.0331   0.8869
  11.000   1.0727   0.01127   0.00588   0.0054   0.0288   0.9103
  11.500   1.1204   0.01178   0.00650   0.0066   0.0253   0.9448
  12.000   1.1687   0.01244   0.00720   0.0075   0.0219   0.9817
  12.500   1.2282   0.01310   0.00789   0.0057   0.0201   0.9977
  13.000   1.2757   0.01392   0.00872   0.0064   0.0180   1.0001
  13.500   1.3218   0.01463   0.00946   0.0074   0.0169   1.0001
  14.000   1.3644   0.01559   0.01044   0.0088   0.0152   1.0001
  14.500   1.4072   0.01646   0.01136   0.0100   0.0145   1.0001
  15.000   1.4476   0.01742   0.01238   0.0116   0.0137   1.0001
