  
       XFOIL         Version 6.99
  
 Calculated polar for: S1223                                           
  
 1 1 Reynolds number fixed          Mach number fixed         
  
 xtrf =   1.000 (top)        1.000 (bottom)  
 Mach =   0.000     Re =     1.000 e 6     Ncrit =   9.000
  
   alpha    CL        CD       CDp       CM     Top_Xtr  Bot_Xtr
  ------ -------- --------- --------- -------- -------- --------
  -5.000   0.2944   0.06440   0.06097  -0.1237   0.5656   0.0143
  -4.900   0.2951   0.06368   0.06023  -0.1232   0.5581   0.0142
  -4.800   0.2971   0.06309   0.05961  -0.1229   0.5503   0.0143
  -4.700   0.2988   0.06227   0.05876  -0.1227   0.5444   0.0145
  -4.600   0.3009   0.06144   0.05793  -0.1226   0.5389   0.0146
  -4.500   0.3027   0.06061   0.05708  -0.1225   0.5333   0.0148
  -4.400   0.3047   0.05981   0.05626  -0.1224   0.5281   0.0148
  -4.300   0.3070   0.05855   0.05500  -0.1231   0.5244   0.0152
  -4.200   0.3103   0.05714   0.05359  -0.1243   0.5208   0.0154
  -4.100   0.3145   0.05613   0.05257  -0.1250   0.5162   0.0154
  -4.000   0.3200   0.05442   0.05084  -0.1270   0.5125   0.0155
  -3.900   0.3257   0.05318   0.04959  -0.1282   0.5083   0.0156
  -3.800   0.3329   0.05175   0.04815  -0.1300   0.5052   0.0156
  -3.700   0.3410   0.05034   0.04673  -0.1318   0.5017   0.0156
  -3.600   0.3499   0.04885   0.04523  -0.1339   0.4977   0.0156
  -3.500   0.3597   0.04737   0.04372  -0.1362   0.4939   0.0156
  -3.400   0.3719   0.04547   0.04180  -0.1395   0.4901   0.0157
  -3.300   0.3857   0.04362   0.03991  -0.1430   0.4866   0.0157
  -3.200   0.7561   0.01355   0.00757  -0.2558   0.4675   0.0152
  -3.100   0.7727   0.01335   0.00728  -0.2570   0.4642   0.0154
  -3.000   0.7877   0.01324   0.00709  -0.2578   0.4607   0.0155
  -2.800   0.8267   0.01259   0.00624  -0.2616   0.4524   0.0161
  -2.700   0.8418   0.01248   0.00609  -0.2625   0.4483   0.0163
  -2.600   0.8556   0.01241   0.00601  -0.2630   0.4458   0.0167
  -2.500   0.8687   0.01237   0.00595  -0.2634   0.4428   0.0170
  -2.400   0.8819   0.01234   0.00589  -0.2638   0.4396   0.0175
  -2.300   0.8952   0.01231   0.00581  -0.2642   0.4364   0.0180
  -2.200   0.9082   0.01230   0.00574  -0.2645   0.4330   0.0185
  -2.100   0.9202   0.01234   0.00571  -0.2646   0.4295   0.0188
  -2.000   0.9403   0.01205   0.00539  -0.2666   0.4273   0.0195
  -1.900   0.9552   0.01197   0.00530  -0.2674   0.4250   0.0200
  -1.800   0.9688   0.01193   0.00524  -0.2679   0.4225   0.0204
  -1.700   0.9823   0.01190   0.00519  -0.2684   0.4199   0.0209
  -1.600   0.9956   0.01189   0.00514  -0.2688   0.4173   0.0214
  -1.500   1.0087   0.01188   0.00510  -0.2691   0.4146   0.0219
  -1.400   1.0213   0.01191   0.00508  -0.2694   0.4116   0.0223
  -1.300   1.0364   0.01184   0.00498  -0.2702   0.4094   0.0229
  -1.200   1.0515   0.01177   0.00490  -0.2710   0.4077   0.0237
  -1.100   1.0645   0.01176   0.00488  -0.2714   0.4059   0.0245
  -1.000   1.0770   0.01176   0.00487  -0.2716   0.4039   0.0253
  -0.900   1.0894   0.01178   0.00486  -0.2718   0.4018   0.0260
  -0.800   1.1016   0.01180   0.00485  -0.2720   0.3997   0.0264
  -0.700   1.1160   0.01177   0.00479  -0.2726   0.3973   0.0273
  -0.600   1.1288   0.01180   0.00478  -0.2729   0.3949   0.0281
  -0.500   1.1410   0.01184   0.00480  -0.2731   0.3923   0.0289
  -0.400   1.1533   0.01185   0.00480  -0.2732   0.3908   0.0299
  -0.300   1.1654   0.01186   0.00480  -0.2734   0.3896   0.0307
  -0.200   1.1784   0.01185   0.00479  -0.2737   0.3883   0.0327
  -0.100   1.1906   0.01187   0.00480  -0.2738   0.3869   0.0348
   0.000   1.2030   0.01188   0.00481  -0.2740   0.3855   0.0384
   0.100   1.2174   0.01186   0.00483  -0.2747   0.3839   0.0604
   0.300   1.2496   0.01174   0.00498  -0.2770   0.3806   0.1987
   0.400   1.2610   0.01179   0.00504  -0.2770   0.3789   0.2107
   0.500   1.2721   0.01186   0.00509  -0.2769   0.3772   0.2184
   0.600   1.2833   0.01193   0.00516  -0.2769   0.3752   0.2278
   0.700   1.2940   0.01202   0.00523  -0.2767   0.3733   0.2338
   0.800   1.3053   0.01205   0.00527  -0.2767   0.3725   0.2395
   0.900   1.3167   0.01208   0.00532  -0.2767   0.3716   0.2473
   1.000   1.3278   0.01212   0.00536  -0.2766   0.3708   0.2530
   1.200   1.3502   0.01220   0.00546  -0.2765   0.3689   0.2663
   1.300   1.3612   0.01225   0.00552  -0.2763   0.3679   0.2723
   1.500   1.3833   0.01236   0.00562  -0.2762   0.3658   0.2817
   1.600   1.3943   0.01241   0.00568  -0.2761   0.3647   0.2873
   1.700   1.4051   0.01247   0.00574  -0.2760   0.3637   0.2927
   1.800   1.4160   0.01254   0.00580  -0.2758   0.3626   0.2983
   1.900   1.4271   0.01260   0.00587  -0.2758   0.3615   0.3055
   2.000   1.4379   0.01267   0.00594  -0.2756   0.3604   0.3111
   2.200   1.4593   0.01284   0.00609  -0.2754   0.3576   0.3225
   2.300   1.4700   0.01293   0.00618  -0.2752   0.3562   0.3291
   2.500   1.4917   0.01306   0.00632  -0.2750   0.3545   0.3428
   2.600   1.5027   0.01310   0.00638  -0.2749   0.3539   0.3507
   2.700   1.5137   0.01315   0.00645  -0.2748   0.3533   0.3585
   2.800   1.5247   0.01320   0.00652  -0.2748   0.3526   0.3675
   2.900   1.5355   0.01325   0.00659  -0.2746   0.3519   0.3762
   3.000   1.5465   0.01330   0.00666  -0.2746   0.3513   0.3863
   3.100   1.5574   0.01336   0.00674  -0.2745   0.3506   0.3958
   3.200   1.5683   0.01342   0.00681  -0.2744   0.3498   0.4072
   3.300   1.5792   0.01348   0.00690  -0.2743   0.3490   0.4186
   3.400   1.5899   0.01354   0.00698  -0.2742   0.3482   0.4310
   3.500   1.6009   0.01361   0.00706  -0.2741   0.3474   0.4444
   3.600   1.6116   0.01368   0.00715  -0.2740   0.3466   0.4575
   3.700   1.6223   0.01375   0.00725  -0.2738   0.3458   0.4709
   3.800   1.6330   0.01383   0.00734  -0.2737   0.3450   0.4853
   3.900   1.6438   0.01391   0.00744  -0.2736   0.3441   0.4997
   4.000   1.6544   0.01399   0.00755  -0.2735   0.3431   0.5151
   4.100   1.6650   0.01409   0.00765  -0.2733   0.3421   0.5308
   4.200   1.6755   0.01419   0.00777  -0.2732   0.3409   0.5479
   4.300   1.6860   0.01431   0.00791  -0.2730   0.3395   0.5661
   4.400   1.6964   0.01443   0.00805  -0.2729   0.3382   0.5854
   4.500   1.7073   0.01453   0.00818  -0.2728   0.3374   0.6063
   4.600   1.7184   0.01457   0.00827  -0.2728   0.3370   0.6296
   4.700   1.7296   0.01463   0.00838  -0.2728   0.3365   0.6546
   4.800   1.7408   0.01467   0.00849  -0.2728   0.3360   0.6822
   4.900   1.7521   0.01473   0.00860  -0.2728   0.3354   0.7139
   5.000   1.7635   0.01477   0.00871  -0.2728   0.3347   0.7521
   5.100   1.7748   0.01481   0.00883  -0.2728   0.3338   0.8021
   5.200   1.7842   0.01479   0.00893  -0.2724   0.3331   0.8803
