
 ===================================================
  XFOIL Version 6.99
  Copyright (C) 2000   Mark Drela, Harold Youngren

  This software comes with ABSOLUTELY NO WARRANTY,
    subject to the GNU General Public License.

  Caveat computor
 ===================================================

 File  xfoil.def  not found

   QUIT    Exit program

  .OPER    Direct operating point(s)
  .MDES    Complex mapping design routine
  .QDES    Surface speed design routine
  .GDES    Geometry design routine

   SAVE f  Write airfoil to labeled coordinate file
   PSAV f  Write airfoil to plain coordinate file
   ISAV f  Write airfoil to ISES coordinate file
   MSAV f  Write airfoil to MSES coordinate file
   REVE    Reverse written-airfoil node ordering

   LOAD f  Read buffer airfoil from coordinate file
   NACA i  Set NACA 4,5-digit airfoil and buffer airfoil
   INTE    Set buffer airfoil by interpolating two airfoils
   NORM    Buffer airfoil normalization toggle
   XYCM rr Change CM reference location, currently  0.25000 0.00000

   BEND    Display structural properties of current airfoil

   PCOP    Set current-airfoil panel nodes directly from buffer airfoil points
   PANE    Set current-airfoil panel nodes ( 160 ) based on curvature
  .PPAR    Show/change paneling

  .PLOP    Plotting options

   WDEF f  Write  current-settings file
   RDEF f  Reread current-settings file
   NAME s  Specify new airfoil name
   NINC    Increment name version number

   Z       Zoom    | (available in all menus)
   U       Unzoom  | 

 XFOIL   c>  
 XFOIL   c>   Max thickness =     0.120035  at x =   0.300
 Max camber    =     0.020000  at x =   0.402

 Buffer airfoil set using 331 points

 Blunt trailing edge.  Gap =  0.00252

 Paneling parameters used...
   Number of panel nodes       160
   Panel bunching parameter    1.000
   TE/LE panel density ratio   0.150
   Refined-area/LE panel density ratio    0.200
   Top    side refined area x/c limits  1.000 1.000
   Bottom side refined area x/c limits  1.000 1.000

 XFOIL   c>  
 Blunt trailing edge.  Gap =  0.00252

 Paneling parameters used...
   Number of panel nodes       160
   Panel bunching parameter    1.000
   TE/LE panel density ratio   0.150
   Refined-area/LE panel density ratio    0.200
   Top    side refined area x/c limits  1.000 1.000
   Bottom side refined area x/c limits  1.000 1.000

 XFOIL   c>  
 You are working with the buffer airfoil

.GDES   c>   Command HING not recognized.  Type a " ? " for list.

.GDES   c>   Command 0.7  not recognized.  Type a " ? " for list.

.GDES   c>  
Enter flap hinge x location   r>  
  Top    surface:  y =  0.0000     y/t = 1.0
  Bottom surface:  y = -0.0000     y/t = 0.0

Enter flap hinge y location (or 999 to specify y/t)   r>  
Enter flap hinge y location (or 999 to specify y/t)   r>  
Enter flap hinge y location (or 999 to specify y/t)   r>  
Enter flap hinge y location (or 999 to specify y/t)   r>  
Enter flap hinge y location (or 999 to specify y/t)   r>  
Enter flap hinge y location (or 999 to specify y/t)   r>  
Enter flap hinge y location (or 999 to specify y/t)   r>  
 Flap hinge: x,y =  0.00000*********

Enter flap deflection in degrees (+ down)   r>  
Enter flap deflection in degrees (+ down)   r>  
.GDES   c>   Command QUIT not recognized.  Type a " ? " for list.

.GDES   c>  
 Buffer airfoil is not identical to current airfoil

 XFOIL   c>  