  
       XFOIL         Version 6.99
  
 Calculated polar for: NACA 2412                                       
  
 1 1 Reynolds number fixed          Mach number fixed         
  
 xtrf =   1.000 (top)        1.000 (bottom)  
 Mach =   0.000     Re =     2.332 e 6     Ncrit =   9.000
  
   alpha    CL        CD       CDp       CM     Top_Xtr  Bot_Xtr
  ------ -------- --------- --------- -------- -------- --------
  -5.000  -1.1725   0.01385   0.00767   0.0681   0.6501   0.0188
  -4.500  -1.1257   0.01321   0.00703   0.0700   0.6445   0.0209
  -4.000  -1.0791   0.01275   0.00653   0.0720   0.6375   0.0222
  -3.500  -1.0330   0.01219   0.00598   0.0742   0.6316   0.0252
  -3.000  -0.9845   0.01173   0.00550   0.0759   0.6234   0.0280
  -2.500  -0.9352   0.01127   0.00506   0.0774   0.6157   0.0315
  -2.000  -0.8858   0.01082   0.00462   0.0789   0.6058   0.0366
  -1.500  -0.8360   0.01040   0.00423   0.0803   0.5966   0.0432
  -1.000  -0.7860   0.01001   0.00386   0.0817   0.5854   0.0515
  -0.500  -0.7357   0.00963   0.00351   0.0830   0.5739   0.0623
   0.000  -0.6858   0.00923   0.00319   0.0844   0.5620   0.0795
   0.500  -0.6353   0.00888   0.00289   0.0857   0.5491   0.0987
   1.000  -0.5853   0.00851   0.00261   0.0870   0.5351   0.1276
   1.500  -0.5355   0.00811   0.00235   0.0884   0.5215   0.1671
   2.000  -0.4856   0.00771   0.00211   0.0897   0.5084   0.2156
   2.500  -0.4357   0.00730   0.00189   0.0910   0.4950   0.2770
   3.000  -0.3875   0.00676   0.00165   0.0925   0.4813   0.3700
   3.500  -0.3540   0.00498   0.00099   0.0966   0.4678   0.7191
   4.000  -0.2949   0.00517   0.00113   0.0962   0.4546   0.7322
   4.500  -0.2364   0.00531   0.00123   0.0958   0.4406   0.7380
   5.000  -0.1777   0.00554   0.00144   0.0955   0.4258   0.7436
   5.500  -0.1188   0.00582   0.00167   0.0951   0.4090   0.7473
   6.000  -0.0600   0.00604   0.00184   0.0946   0.3896   0.7492
   6.500  -0.0023   0.00606   0.00178   0.0942   0.3659   0.7526
   7.000   0.0559   0.00629   0.00199   0.0938   0.3419   0.7567
   7.500   0.1141   0.00665   0.00229   0.0933   0.3129   0.7608
   8.000   0.1719   0.00685   0.00237   0.0927   0.2802   0.7604
   8.500   0.2294   0.00707   0.00247   0.0921   0.2454   0.7596
   9.000   0.2865   0.00739   0.00262   0.0915   0.2054   0.7589
   9.500   0.3434   0.00772   0.00282   0.0909   0.1688   0.7581
  10.000   0.3998   0.00814   0.00308   0.0903   0.1318   0.7574
  10.500   0.4558   0.00859   0.00338   0.0897   0.1009   0.7566
  11.000   0.5119   0.00901   0.00370   0.0891   0.0794   0.7559
  11.500   0.5676   0.00946   0.00406   0.0885   0.0618   0.7552
  12.000   0.6231   0.00992   0.00445   0.0879   0.0501   0.7546
  12.500   0.6781   0.01041   0.00490   0.0873   0.0410   0.7539
  13.000   0.7330   0.01091   0.00538   0.0867   0.0348   0.7533
  13.500   0.7874   0.01144   0.00590   0.0861   0.0300   0.7527
  14.000   0.8412   0.01201   0.00648   0.0855   0.0264   0.7522
  14.500   0.8940   0.01272   0.00719   0.0850   0.0228   0.7516
  15.000   0.9471   0.01330   0.00780   0.0844   0.0212   0.7511
