  
       XFOIL         Version 6.99
  
 Calculated polar for: NACA 2412                                       
  
 1 1 Reynolds number fixed          Mach number fixed         
  
 xtrf =   1.000 (top)        1.000 (bottom)  
 Mach =   0.000     Re =     1.521 e 6     Ncrit =   9.000
  
   alpha    CL        CD       CDp       CM     Top_Xtr  Bot_Xtr
  ------ -------- --------- --------- -------- -------- --------
 -15.000  -1.4049   0.03030   0.02637  -0.0484   1.0000   0.0114
 -14.500  -1.4014   0.02702   0.02291  -0.0448   1.0000   0.0118
 -14.000  -1.3859   0.02493   0.02068  -0.0406   1.0000   0.0121
 -13.500  -1.3610   0.02330   0.01892  -0.0370   1.0000   0.0125
 -13.000  -1.3278   0.02183   0.01733  -0.0344   1.0000   0.0129
 -12.500  -1.2907   0.02053   0.01590  -0.0321   1.0000   0.0133
 -12.000  -1.2501   0.01943   0.01468  -0.0301   1.0000   0.0137
 -11.500  -1.2150   0.01773   0.01285  -0.0273   1.0000   0.0145
 -11.000  -1.1730   0.01669   0.01173  -0.0253   1.0000   0.0152
 -10.500  -1.1300   0.01585   0.01082  -0.0232   1.0000   0.0159
 -10.000  -1.0865   0.01515   0.01006  -0.0210   1.0000   0.0166
  -9.500  -1.0471   0.01408   0.00891  -0.0181   1.0000   0.0177
  -9.000  -1.0047   0.01338   0.00817  -0.0156   1.0000   0.0188
  -8.500  -0.9603   0.01278   0.00752  -0.0135   0.9999   0.0198
  -8.000  -0.8945   0.01191   0.00661  -0.0159   0.9970   0.0218
  -7.500  -0.8248   0.01131   0.00600  -0.0191   0.9939   0.0237
  -7.000  -0.7592   0.01057   0.00525  -0.0214   0.9871   0.0265
  -6.500  -0.6964   0.01003   0.00469  -0.0229   0.9755   0.0292
  -6.000  -0.6379   0.00953   0.00418  -0.0234   0.9528   0.0331
  -5.500  -0.5884   0.00920   0.00365  -0.0216   0.8717   0.0378
  -4.500  -0.4847   0.00888   0.00289  -0.0197   0.7352   0.0516
  -4.000  -0.4298   0.00859   0.00258  -0.0194   0.7220   0.0622
  -3.500  -0.3747   0.00830   0.00231  -0.0192   0.7114   0.0775
  -3.000  -0.3193   0.00803   0.00208  -0.0190   0.7016   0.0972
  -2.500  -0.2634   0.00768   0.00185  -0.0189   0.6908   0.1251
  -2.000  -0.2075   0.00734   0.00164  -0.0188   0.6780   0.1614
  -1.500  -0.1516   0.00703   0.00146  -0.0187   0.6624   0.2048
  -1.000  -0.0960   0.00674   0.00130  -0.0186   0.6436   0.2577
  -0.500  -0.0404   0.00647   0.00118  -0.0185   0.6227   0.3208
  -0.000   0.0147   0.00616   0.00108  -0.0184   0.5997   0.4045
   0.500   0.0681   0.00571   0.00100  -0.0180   0.5756   0.5447
   1.000   0.1191   0.00509   0.00097  -0.0170   0.5526   0.7535
   1.500   0.1752   0.00511   0.00102  -0.0168   0.5283   0.7950
   2.000   0.2320   0.00520   0.00107  -0.0167   0.5056   0.8184
   3.500   0.4018   0.00555   0.00133  -0.0167   0.4372   0.8679
   4.000   0.4577   0.00572   0.00145  -0.0165   0.4110   0.8831
   4.500   0.5127   0.00592   0.00160  -0.0162   0.3802   0.9025
   5.000   0.5657   0.00617   0.00180  -0.0155   0.3450   0.9266
   5.500   0.6175   0.00649   0.00204  -0.0145   0.3057   0.9488
   6.000   0.6699   0.00693   0.00232  -0.0139   0.2609   0.9652
   6.500   0.7256   0.00749   0.00268  -0.0141   0.2115   0.9787
   7.000   0.7856   0.00817   0.00312  -0.0154   0.1612   0.9875
   7.500   0.8468   0.00891   0.00363  -0.0172   0.1174   0.9939
   8.000   0.9115   0.00961   0.00416  -0.0197   0.0861   0.9969
   8.500   0.9736   0.01031   0.00473  -0.0217   0.0644   1.0000
   9.000   1.0149   0.01091   0.00526  -0.0191   0.0515   1.0000
   9.500   1.0589   0.01154   0.00583  -0.0171   0.0420   1.0000
  10.000   1.1051   0.01220   0.00646  -0.0156   0.0356   1.0000
  10.500   1.1520   0.01288   0.00713  -0.0144   0.0308   1.0000
  11.000   1.1991   0.01356   0.00784  -0.0133   0.0276   1.0000
  11.500   1.2446   0.01436   0.00866  -0.0120   0.0246   1.0000
  12.000   1.2889   0.01522   0.00953  -0.0106   0.0220   1.0000
  12.500   1.3320   0.01610   0.01047  -0.0091   0.0203   1.0000
  13.000   1.3728   0.01708   0.01148  -0.0073   0.0188   1.0000
  13.500   1.4089   0.01827   0.01275  -0.0049   0.0174   1.0000
  14.000   1.4427   0.01930   0.01385  -0.0022   0.0164   1.0000
  14.500   1.4685   0.02067   0.01529   0.0014   0.0154   1.0000
  15.000   1.4854   0.02278   0.01752   0.0053   0.0144   1.0000
  15.500   1.5086   0.02473   0.01959   0.0076   0.0140   1.0000
  16.000   1.5276   0.02733   0.02231   0.0093   0.0135   1.0000
  16.500   1.5427   0.03073   0.02585   0.0100   0.0130   1.0000
  17.000   1.5508   0.03526   0.03051   0.0098   0.0125   1.0000
  17.500   1.5430   0.04169   0.03713   0.0092   0.0119   1.0000
  18.000   1.5369   0.04822   0.04385   0.0080   0.0116   1.0000
  18.500   1.5310   0.05497   0.05078   0.0064   0.0114   1.0000
  19.000   1.5173   0.06305   0.05906   0.0040   0.0112   1.0000
  19.500   1.4968   0.07257   0.06878   0.0006   0.0111   1.0000
  20.000   1.4700   0.08341   0.07982  -0.0036   0.0109   1.0000
  20.500   1.4369   0.09559   0.09222  -0.0086   0.0108   1.0000
  21.000   1.4003   0.10874   0.10558  -0.0143   0.0107   1.0000
  21.500   1.3614   0.12281   0.11987  -0.0210   0.0106   1.0000
  22.000   1.3246   0.13697   0.13424  -0.0283   0.0105   1.0000
  22.500   1.2905   0.15128   0.14873  -0.0362   0.0104   1.0000
  23.000   1.2624   0.16493   0.16255  -0.0444   0.0102   1.0000
  23.500   1.2380   0.17851   0.17627  -0.0531   0.0101   1.0000
  24.000   1.2206   0.19089   0.18877  -0.0614   0.0098   1.0000
  24.500   1.2066   0.20283   0.20081  -0.0698   0.0095   1.0000
  25.000   1.1945   0.21495   0.21308  -0.0784   0.0093   1.0000
