  
       XFOIL         Version 6.99
  
 Calculated polar for: NACA 2412                                       
  
 1 1 Reynolds number fixed          Mach number fixed         
  
 xtrf =   1.000 (top)        1.000 (bottom)  
 Mach =   0.000     Re =     2.332 e 6     Ncrit =   9.000
  
   alpha    CL        CD       CDp       CM     Top_Xtr  Bot_Xtr
  ------ -------- --------- --------- -------- -------- --------
 -15.000  -1.7902   0.05310   0.04886   0.0091   0.6928   0.0082
 -14.500  -1.7957   0.04816   0.04374   0.0127   0.6918   0.0083
 -14.000  -1.7956   0.04409   0.03952   0.0168   0.6903   0.0085
 -13.500  -1.7905   0.04064   0.03592   0.0212   0.6886   0.0086
 -13.000  -1.7812   0.03769   0.03282   0.0257   0.6871   0.0088
 -12.500  -1.7671   0.03515   0.03014   0.0301   0.6857   0.0090
 -12.000  -1.7487   0.03294   0.02780   0.0343   0.6845   0.0091
 -11.500  -1.7266   0.03103   0.02577   0.0384   0.6832   0.0093
 -11.000  -1.7068   0.02886   0.02345   0.0429   0.6811   0.0095
 -10.500  -1.6839   0.02683   0.02129   0.0473   0.6788   0.0101
 -10.000  -1.6539   0.02534   0.01972   0.0510   0.6768   0.0105
  -9.500  -1.6210   0.02404   0.01834   0.0544   0.6748   0.0109
  -9.000  -1.5855   0.02289   0.01711   0.0575   0.6726   0.0113
  -8.500  -1.5480   0.02188   0.01604   0.0604   0.6698   0.0117
  -8.000  -1.5099   0.02079   0.01486   0.0634   0.6665   0.0122
  -7.500  -1.4704   0.01968   0.01370   0.0662   0.6632   0.0131
  -7.000  -1.4287   0.01882   0.01279   0.0686   0.6595   0.0138
  -6.500  -1.3856   0.01805   0.01198   0.0710   0.6560   0.0145
  -6.000  -1.3418   0.01727   0.01115   0.0732   0.6516   0.0152
  -5.500  -1.2972   0.01648   0.01033   0.0754   0.6466   0.0166
  -5.000  -1.2514   0.01585   0.00968   0.0773   0.6423   0.0177
  -4.500  -1.2054   0.01518   0.00898   0.0793   0.6366   0.0192
  -4.000  -1.1590   0.01456   0.00835   0.0813   0.6298   0.0210
  -3.500  -1.1121   0.01400   0.00777   0.0831   0.6241   0.0225
  -3.000  -1.0652   0.01342   0.00719   0.0850   0.6165   0.0254
  -2.500  -1.0179   0.01288   0.00666   0.0868   0.6090   0.0285
  -2.000  -0.9706   0.01240   0.00616   0.0886   0.6000   0.0314
  -1.500  -0.9237   0.01187   0.00566   0.0905   0.5913   0.0369
  -1.000  -0.8770   0.01138   0.00518   0.0924   0.5804   0.0436
  -0.500  -0.8305   0.01089   0.00473   0.0944   0.5708   0.0519
   0.000  -0.7845   0.01043   0.00430   0.0965   0.5594   0.0627
   0.500  -0.7428   0.00998   0.00390   0.0995   0.5472   0.0788
   1.000  -0.7002   0.00957   0.00356   0.1024   0.5361   0.0975
   1.500  -0.6552   0.00913   0.00322   0.1047   0.5238   0.1258
   2.000  -0.6094   0.00871   0.00291   0.1069   0.5102   0.1605
   2.500  -0.5639   0.00824   0.00260   0.1091   0.4983   0.2091
   3.000  -0.5182   0.00775   0.00231   0.1112   0.4865   0.2705
   3.500  -0.4736   0.00715   0.00200   0.1134   0.4738   0.3623
   4.000  -0.4467   0.00515   0.00117   0.1188   0.4624   0.7187
   4.500  -0.3874   0.00540   0.00140   0.1184   0.4497   0.7288
   5.000  -0.3281   0.00579   0.00172   0.1179   0.4360   0.7338
   5.500  -0.2701   0.00588   0.00180   0.1177   0.4218   0.7401
   6.000  -0.2110   0.00618   0.00208   0.1172   0.4053   0.7443
   6.500  -0.1518   0.00652   0.00239   0.1167   0.3867   0.7472
   7.000  -0.0927   0.00687   0.00267   0.1161   0.3654   0.7492
   7.500  -0.0360   0.00678   0.00253   0.1159   0.3401   0.7539
   8.000   0.0228   0.00718   0.00291   0.1153   0.3141   0.7582
   8.500   0.0806   0.00731   0.00294   0.1147   0.2844   0.7575
   9.000   0.1382   0.00749   0.00299   0.1141   0.2500   0.7567
   9.500   0.1955   0.00772   0.00308   0.1134   0.2141   0.7559
  10.000   0.2525   0.00803   0.00324   0.1127   0.1756   0.7551
  10.500   0.3093   0.00838   0.00344   0.1119   0.1411   0.7543
  11.000   0.3658   0.00880   0.00371   0.1112   0.1086   0.7536
  11.500   0.4222   0.00921   0.00402   0.1105   0.0854   0.7529
  12.000   0.4783   0.00968   0.00439   0.1097   0.0662   0.7523
  12.500   0.5343   0.01014   0.00479   0.1090   0.0532   0.7517
  13.000   0.5900   0.01064   0.00525   0.1082   0.0436   0.7512
  13.500   0.6454   0.01116   0.00575   0.1074   0.0366   0.7507
  14.000   0.7005   0.01170   0.00628   0.1066   0.0315   0.7502
  14.500   0.7552   0.01228   0.00688   0.1058   0.0276   0.7498
  15.000   0.8090   0.01297   0.00758   0.1050   0.0240   0.7495
  15.500   0.8628   0.01362   0.00826   0.1042   0.0219   0.7491
  16.000   0.9154   0.01447   0.00916   0.1033   0.0198   0.7486
  16.500   0.9674   0.01513   0.00986   0.1024   0.0184   0.7484
  17.000   1.0170   0.01616   0.01093   0.1014   0.0164   0.7482
  17.500   1.0679   0.01696   0.01179   0.1002   0.0157   0.7481
  18.000   1.1168   0.01811   0.01300   0.0987   0.0147   0.7478
  18.500   1.1617   0.02008   0.01506   0.0962   0.0133   0.7476
  19.000   1.2071   0.02190   0.01698   0.0934   0.0130   0.7474
  19.500   1.2450   0.02471   0.01990   0.0892   0.0125   0.7471
  20.000   1.2579   0.02907   0.02437   0.0854   0.0121   0.7468
  20.500   1.2650   0.03387   0.02926   0.0825   0.0117   0.7465
  21.000   1.2629   0.03959   0.03509   0.0797   0.0113   0.7462
  21.500   1.2492   0.04691   0.04256   0.0761   0.0108   0.7458
  22.000   1.2316   0.05514   0.05096   0.0720   0.0106   0.7455
  22.500   1.2196   0.06299   0.05895   0.0680   0.0105   0.7452
  23.000   1.1991   0.07228   0.06839   0.0633   0.0104   0.7449
  23.500   1.1704   0.08309   0.07937   0.0579   0.0103   0.7447
  24.000   1.1359   0.09513   0.09158   0.0518   0.0103   0.7444
  24.500   1.0964   0.10841   0.10504   0.0451   0.0102   0.7442
  25.000   1.0520   0.12315   0.11996   0.0376   0.0101   0.7439
