  
       XFOIL         Version 6.99
  
 Calculated polar for: NACA 2412                                       
  
 1 1 Reynolds number fixed          Mach number fixed         
  
 xtrf =   1.000 (top)        1.000 (bottom)  
 Mach =   0.000     Re =     1.521 e 6     Ncrit =   9.000
  
   alpha    CL        CD       CDp       CM     Top_Xtr  Bot_Xtr
  ------ -------- --------- --------- -------- -------- --------
 -15.000  -0.1181   0.01803   0.01355  -0.2367   0.7675   0.0240
 -14.500  -0.0543   0.01701   0.01242  -0.2395   0.7658   0.0262
 -14.000  -0.2092   0.02773   0.02347  -0.2071   0.7845   0.0246
 -13.500  -0.1634   0.02816   0.02386  -0.2067   0.7849   0.0264
 -13.000  -0.1164   0.02858   0.02420  -0.2065   0.7854   0.0283
 -12.500  -0.0682   0.02901   0.02461  -0.2063   0.7862   0.0313
 -12.000  -0.0174   0.02945   0.02500  -0.2065   0.7872   0.0346
 -11.500   0.0433   0.03002   0.02554  -0.2079   0.7891   0.0382
 -11.000   0.1217   0.03102   0.02655  -0.2119   0.7910   0.0449
 -10.500   0.1748   0.03172   0.02726  -0.2122   0.7911   0.0525
 -10.000   0.2268   0.03241   0.02796  -0.2122   0.7912   0.0620
  -9.500   0.2787   0.03307   0.02866  -0.2121   0.7913   0.0754
  -9.000   0.3289   0.03368   0.02934  -0.2118   0.7914   0.0917
  -8.500   0.3756   0.03417   0.02988  -0.2108   0.7913   0.1102
  -8.000   0.4236   0.03467   0.03045  -0.2100   0.7913   0.1351
  -7.500   0.4714   0.03519   0.03104  -0.2091   0.7912   0.1605
  -7.000   0.5190   0.03566   0.03161  -0.2081   0.7912   0.1917
  -6.500   0.5657   0.03609   0.03213  -0.2070   0.7911   0.2240
  -6.000   0.6105   0.03639   0.03252  -0.2055   0.7909   0.2573
  -5.500   0.6055   0.03595   0.03214  -0.1963   0.7863   0.2774
  -5.000   0.6581   0.03593   0.03222  -0.1958   0.7829   0.3137
  -4.500   0.7404   0.03486   0.03127  -0.1995   0.7795   0.3589
  -4.000   1.1654   0.01151   0.00776  -0.2572   0.7536   0.4774
  -3.500   1.2363   0.01014   0.00641  -0.2598   0.7519   0.5063
  -3.000   1.3046   0.00896   0.00517  -0.2619   0.7452   0.5285
  -2.500   1.3618   0.00790   0.00413  -0.2617   0.7365   0.5459
  -2.000   1.3548   0.00854   0.00449  -0.2483   0.6301   0.5568
  -1.500   1.2433   0.01730   0.01306  -0.2199   0.5444   0.5609
  -1.000   1.2001   0.02337   0.01891  -0.2047   0.4851   0.5689
  -0.500   1.2120   0.02566   0.02100  -0.1977   0.4380   0.5789
  -0.000   1.2384   0.02710   0.02224  -0.1929   0.3929   0.5887
   0.500   1.2673   0.02829   0.02317  -0.1884   0.3372   0.5977
   1.000   1.2987   0.02924   0.02380  -0.1842   0.2776   0.6060
   1.500   1.3319   0.03006   0.02430  -0.1803   0.2161   0.6132
   2.000   1.3652   0.03093   0.02486  -0.1764   0.1607   0.6199
   2.500   1.4001   0.03181   0.02547  -0.1728   0.1165   0.6259
   3.000   1.4360   0.03271   0.02619  -0.1694   0.0848   0.6311
   3.500   1.4724   0.03362   0.02698  -0.1662   0.0640   0.6363
   4.000   1.5087   0.03458   0.02784  -0.1630   0.0495   0.6414
   4.500   1.5451   0.03558   0.02880  -0.1599   0.0404   0.6449
   5.000   1.5808   0.03665   0.02985  -0.1567   0.0338   0.6481
   5.500   1.6154   0.03778   0.03097  -0.1534   0.0288   0.6517
   6.000   1.6501   0.03894   0.03215  -0.1503   0.0258   0.6556
   6.500   1.6824   0.04027   0.03352  -0.1468   0.0229   0.6574
   7.000   1.7124   0.04178   0.03506  -0.1432   0.0206   0.6594
   7.500   1.7410   0.04341   0.03676  -0.1394   0.0188   0.6616
   8.000   1.7695   0.04505   0.03846  -0.1357   0.0174   0.6644
   8.500   1.7934   0.04708   0.04054  -0.1316   0.0158   0.6678
   9.000   1.8199   0.04892   0.04248  -0.1279   0.0150   0.6691
   9.500   1.8410   0.05122   0.04486  -0.1237   0.0140   0.6705
  10.000   1.8573   0.05395   0.04768  -0.1191   0.0129   0.6725
  10.500   1.8751   0.05662   0.05048  -0.1150   0.0125   0.6749
  11.000   1.8903   0.05960   0.05357  -0.1108   0.0120   0.6774
  11.500   1.9044   0.06271   0.05680  -0.1067   0.0114   0.6788
  12.000   1.9111   0.06664   0.06086  -0.1023   0.0109   0.6804
  12.500   1.9090   0.07166   0.06605  -0.0978   0.0103   0.6819
  13.000   1.9059   0.07710   0.07168  -0.0940   0.0100   0.6835
  13.500   1.9050   0.08262   0.07737  -0.0912   0.0098   0.6854
  14.000   1.9009   0.08887   0.08381  -0.0891   0.0095   0.6868
  14.500   1.8931   0.09594   0.09107  -0.0881   0.0092   0.6880
  15.000   1.8823   0.10365   0.09897  -0.0880   0.0090   0.6893
  15.500   1.8657   0.11238   0.10791  -0.0890   0.0088   0.6905
  16.000   1.8462   0.12180   0.11752  -0.0913   0.0086   0.6916
  16.500   1.8229   0.13213   0.12806  -0.0950   0.0084   0.6926
  17.000   1.7947   0.14365   0.13981  -0.1004   0.0082   0.6933
  17.500   1.7625   0.15633   0.15273  -0.1077   0.0080   0.6938
  18.000   1.7280   0.17005   0.16671  -0.1169   0.0078   0.6944
  18.500   1.7045   0.18209   0.17897  -0.1255   0.0078   0.6953
  19.000   1.6832   0.19399   0.19106  -0.1346   0.0077   0.6961
  19.500   1.6633   0.20586   0.20314  -0.1442   0.0077   0.6969
  20.000   1.6443   0.21784   0.21530  -0.1543   0.0076   0.6975
  20.500   1.6249   0.23037   0.22801  -0.1653   0.0075   0.6981
  21.000   1.6097   0.24219   0.23999  -0.1759   0.0073   0.6988
  21.500   1.5960   0.25401   0.25196  -0.1868   0.0072   0.6993
  22.000   1.5818   0.26653   0.26463  -0.1984   0.0070   0.6998
  22.500   1.5696   0.27890   0.27715  -0.2101   0.0068   0.7003
  23.000   1.5587   0.29136   0.28973  -0.2218   0.0065   0.7009
  23.500   1.5483   0.30443   0.30291  -0.2341   0.0062   0.7015
  24.500   0.9031   0.35336   0.35224  -0.1691   0.0042   0.6935
  25.000   0.9024   0.36390   0.36280  -0.1715   0.0033   0.6943
