  
       XFOIL         Version 6.99
  
 Calculated polar for: NACA 0012                                       
  
 1 1 Reynolds number fixed          Mach number fixed         
  
 xtrf =   1.000 (top)        1.000 (bottom)  
 Mach =   0.000     Re =     1.521 e 6     Ncrit =   9.000
  
   alpha    CL        CD       CDp       CM     Top_Xtr  Bot_Xtr
  ------ -------- --------- --------- -------- -------- --------
 -12.000   0.1682   0.04872   0.04455  -0.2104   0.7603   0.1031
 -11.500   0.2153   0.04949   0.04538  -0.2099   0.7603   0.1268
 -11.000   0.2614   0.05030   0.04627  -0.2091   0.7603   0.1523
 -10.500   0.3057   0.05114   0.04719  -0.2081   0.7604   0.1809
 -10.000   0.3475   0.05204   0.04815  -0.2065   0.7606   0.2061
  -9.500   0.3882   0.05295   0.04916  -0.2047   0.7609   0.2374
  -9.000   0.4276   0.05391   0.05017  -0.2027   0.7615   0.2606
  -8.500   0.4677   0.05487   0.05122  -0.2007   0.7622   0.2893
  -8.000   0.5140   0.05556   0.05197  -0.1995   0.7623   0.3144
  -7.500   0.5684   0.05590   0.05238  -0.1992   0.7614   0.3408
  -7.000   0.6228   0.05628   0.05283  -0.1990   0.7608   0.3647
  -6.500   0.6805   0.05661   0.05322  -0.1991   0.7601   0.3859
  -6.000   0.7511   0.05671   0.05339  -0.2010   0.7593   0.4085
  -5.500   0.8375   0.05625   0.05300  -0.2050   0.7585   0.4301
  -5.000   0.8753   0.05895   0.05578  -0.2021   0.7572   0.4456
  -4.500   0.9072   0.05339   0.05025  -0.1977   0.7401   0.4583
  -4.000   0.9913   0.04951   0.04643  -0.2009   0.7270   0.4762
  -3.500   1.0116   0.05057   0.04639  -0.1960   0.4879   0.4868
  -2.500   1.0999   0.05028   0.04501  -0.1917   0.2715   0.5098
  -2.000   1.1433   0.05030   0.04465  -0.1893   0.1984   0.5202
  -1.500   1.1877   0.05031   0.04439  -0.1871   0.1459   0.5301
  -1.000   1.2334   0.05022   0.04407  -0.1849   0.1060   0.5392
  -0.500   1.2762   0.05045   0.04416  -0.1824   0.0797   0.5478
  -0.000   1.3188   0.05074   0.04434  -0.1799   0.0612   0.5554
