  
       XFOIL         Version 6.99
  
 Calculated polar for: NACA 2412                                       
  
 1 1 Reynolds number fixed          Mach number fixed         
  
 xtrf =   1.000 (top)        1.000 (bottom)  
 Mach =   0.000     Re =     2.332 e 6     Ncrit =   9.000
  
   alpha    CL        CD       CDp       CM     Top_Xtr  Bot_Xtr
  ------ -------- --------- --------- -------- -------- --------
 -15.000  -0.7801   0.01440   0.00964  -0.1424   0.7740   0.0141
 -14.500  -0.7278   0.01336   0.00852  -0.1431   0.7742   0.0152
 -14.000  -0.6735   0.01266   0.00776  -0.1438   0.7744   0.0160
 -13.500  -0.6184   0.01208   0.00712  -0.1444   0.7746   0.0167
 -13.000  -0.5636   0.01135   0.00633  -0.1451   0.7748   0.0179
 -12.500  -0.5078   0.01081   0.00576  -0.1457   0.7749   0.0193
 -12.000  -0.4512   0.01042   0.00532  -0.1464   0.7751   0.0203
 -11.500  -0.3949   0.00982   0.00471  -0.1470   0.7756   0.0226
 -11.000  -0.3377   0.00944   0.00430  -0.1477   0.7763   0.0241
 -10.500  -0.2806   0.00897   0.00383  -0.1484   0.7770   0.0273
 -10.000  -0.2230   0.00860   0.00345  -0.1490   0.7776   0.0303
  -9.500  -0.1651   0.00828   0.00314  -0.1497   0.7784   0.0336
  -9.000  -0.1071   0.00794   0.00283  -0.1504   0.7790   0.0391
  -8.500  -0.0492   0.00766   0.00257  -0.1510   0.7780   0.0456
  -8.000   0.0088   0.00745   0.00238  -0.1516   0.7759   0.0539
  -7.500   0.0671   0.00719   0.00218  -0.1522   0.7749   0.0658
  -7.000   0.1254   0.00691   0.00197  -0.1529   0.7745   0.0817
  -6.500   0.1840   0.00666   0.00179  -0.1535   0.7740   0.1004
  -6.000   0.2425   0.00640   0.00163  -0.1541   0.7732   0.1252
  -5.500   0.3010   0.00617   0.00150  -0.1547   0.7722   0.1552
  -5.000   0.3596   0.00595   0.00140  -0.1553   0.7709   0.1883
  -4.500   0.4182   0.00575   0.00131  -0.1558   0.7691   0.2239
  -4.000   0.4767   0.00553   0.00122  -0.1564   0.7667   0.2674
  -3.500   0.5350   0.00537   0.00117  -0.1568   0.7639   0.3082
  -3.000   0.5932   0.00528   0.00118  -0.1573   0.7591   0.3530
  -2.500   0.6514   0.00505   0.00112  -0.1577   0.7560   0.4036
  -2.000   0.7094   0.00486   0.00108  -0.1580   0.7493   0.4610
  -1.500   0.7670   0.00474   0.00108  -0.1582   0.7376   0.5097
  -1.000   0.8046   0.00579   0.00155  -0.1545   0.5724   0.5433
  -0.500   0.8515   0.00633   0.00188  -0.1526   0.5071   0.5720
  -0.000   0.8996   0.00678   0.00218  -0.1510   0.4591   0.5946
   0.500   0.9480   0.00719   0.00247  -0.1494   0.4189   0.6131
   1.000   0.9943   0.00768   0.00280  -0.1474   0.3760   0.6279
   1.500   1.0378   0.00827   0.00320  -0.1449   0.3262   0.6406
   2.000   1.0790   0.00895   0.00366  -0.1419   0.2750   0.6507
   2.500   1.1154   0.00969   0.00417  -0.1380   0.2233   0.6590
   3.000   1.1504   0.01053   0.00478  -0.1340   0.1733   0.6661
   3.500   1.1893   0.01138   0.00541  -0.1308   0.1321   0.6723
   4.000   1.2283   0.01228   0.00612  -0.1277   0.0968   0.6776
   4.500   1.2687   0.01311   0.00680  -0.1249   0.0735   0.6833
   5.000   1.3098   0.01387   0.00749  -0.1223   0.0583   0.6864
   5.500   1.3501   0.01468   0.00823  -0.1197   0.0461   0.6898
   6.000   1.3902   0.01551   0.00900  -0.1170   0.0378   0.6931
   6.500   1.4300   0.01632   0.00980  -0.1144   0.0319   0.6959
   7.000   1.4688   0.01719   0.01066  -0.1117   0.0276   0.6992
   7.500   1.5073   0.01808   0.01155  -0.1090   0.0247   0.7018
   8.000   1.5442   0.01903   0.01254  -0.1062   0.0219   0.7049
   8.500   1.5797   0.02007   0.01360  -0.1032   0.0196   0.7076
   9.000   1.6144   0.02118   0.01476  -0.1002   0.0180   0.7101
   9.500   1.6473   0.02240   0.01602  -0.0971   0.0165   0.7133
  10.000   1.6774   0.02380   0.01749  -0.0936   0.0151   0.7161
  10.500   1.7083   0.02516   0.01891  -0.0904   0.0144   0.7186
  11.000   1.7354   0.02677   0.02058  -0.0869   0.0134   0.7218
  11.500   1.7586   0.02868   0.02258  -0.0830   0.0123   0.7254
  12.000   1.7843   0.03042   0.02442  -0.0796   0.0119   0.7302
  13.000   1.8242   0.03439   0.02902  -0.0720   0.0108   0.9999
  13.500   1.8366   0.03734   0.03207  -0.0678   0.0100   0.9999
  14.000   1.8508   0.04028   0.03512  -0.0642   0.0097   0.9999
  14.500   1.8645   0.04338   0.03833  -0.0608   0.0095   0.9999
  15.000   1.8744   0.04692   0.04199  -0.0576   0.0092   0.9999
  15.500   1.8806   0.05105   0.04624  -0.0547   0.0089   0.9999
  16.000   1.8820   0.05599   0.05131  -0.0522   0.0086   0.9999
  16.500   1.8765   0.06219   0.05766  -0.0506   0.0082   0.9999
  17.000   1.8626   0.06999   0.06566  -0.0501   0.0079   0.9999
  17.500   1.8404   0.07936   0.07525  -0.0508   0.0077   0.9999
  18.000   1.8231   0.08830   0.08438  -0.0523   0.0076   0.9999
  18.500   1.7993   0.09845   0.09473  -0.0548   0.0075   0.9999
  19.000   1.7700   0.10964   0.10614  -0.0584   0.0075   0.9999
  19.500   1.7391   0.12147   0.11818  -0.0630   0.0074   0.9999
  20.000   1.7036   0.13442   0.13135  -0.0692   0.0074   0.9999
  20.500   1.6683   0.14787   0.14502  -0.0765   0.0073   0.9999
  21.000   1.6322   0.16202   0.15939  -0.0853   0.0072   0.9999
  21.500   1.5928   0.17739   0.17499  -0.0959   0.0072   0.9999
  22.000   1.5561   0.19301   0.19082  -0.1074   0.0071   0.9999
  22.500   1.5221   0.20884   0.20685  -0.1197   0.0070   0.9999
  23.000   1.4924   0.22442   0.22262  -0.1324   0.0069   0.9999
  23.500   1.4711   0.23830   0.23665  -0.1440   0.0068   0.9999
  24.000   1.4523   0.25226   0.25075  -0.1558   0.0066   0.9999
  24.500   1.4410   0.26450   0.26309  -0.1663   0.0064   0.9999
  25.000   1.4330   0.27607   0.27474  -0.1764   0.0061   0.9999
