  
       XFOIL         Version 6.99
  
 Calculated polar for: NACA 0012                                       
  
 1 1 Reynolds number fixed          Mach number fixed         
  
 xtrf =   1.000 (top)        1.000 (bottom)  
 Mach =   0.000     Re =     2.332 e 6     Ncrit =   9.000
  
   alpha    CL        CD       CDp       CM     Top_Xtr  Bot_Xtr
  ------ -------- --------- --------- -------- -------- --------
 -11.500  -1.6282   0.02187   0.01607   0.0449   0.7294   0.0120
 -11.000  -1.5956   0.02073   0.01483   0.0481   0.7241   0.0124
 -10.500  -1.5624   0.01961   0.01361   0.0514   0.7206   0.0129
 -10.000  -1.5290   0.01844   0.01238   0.0548   0.7174   0.0139
  -9.500  -1.4917   0.01755   0.01143   0.0577   0.7140   0.0147
  -9.000  -1.4520   0.01681   0.01063   0.0604   0.7107   0.0154
  -8.500  -1.4131   0.01593   0.00970   0.0632   0.7078   0.0169
  -8.000  -1.3720   0.01526   0.00899   0.0658   0.7045   0.0182
  -7.500  -1.3316   0.01466   0.00835   0.0688   0.7015   0.0193
  -7.000  -1.2873   0.01398   0.00767   0.0709   0.6979   0.0216
  -6.500  -1.2408   0.01343   0.00709   0.0727   0.6946   0.0238
  -6.000  -1.1934   0.01284   0.00652   0.0743   0.6912   0.0266
  -5.500  -1.1453   0.01226   0.00596   0.0758   0.6874   0.0304
  -5.000  -1.0963   0.01174   0.00545   0.0772   0.6840   0.0353
  -4.500  -1.0466   0.01121   0.00497   0.0785   0.6792   0.0415
  -4.000  -0.9964   0.01070   0.00451   0.0797   0.6739   0.0501
  -3.500  -0.9456   0.01022   0.00409   0.0808   0.6680   0.0611
  -3.000  -0.8950   0.00971   0.00368   0.0819   0.6604   0.0784
  -2.500  -0.8439   0.00923   0.00331   0.0830   0.6521   0.1005
  -2.000  -0.7933   0.00873   0.00293   0.0841   0.6416   0.1319
  -1.500  -0.7423   0.00824   0.00260   0.0851   0.6299   0.1706
  -1.000  -0.6918   0.00773   0.00228   0.0863   0.6165   0.2199
  -0.500  -0.6414   0.00723   0.00199   0.0874   0.6010   0.2772
  -0.000  -0.5904   0.00678   0.00174   0.0885   0.5831   0.3374
