  
       XFOIL         Version 6.99
  
 Calculated polar for: NACA 0012                                       
  
 1 1 Reynolds number fixed          Mach number fixed         
  
 xtrf =   1.000 (top)        1.000 (bottom)  
 Mach =   0.000     Re =     2.332 e 6     Ncrit =   9.000
  
   alpha    CL        CD       CDp       CM     Top_Xtr  Bot_Xtr
  ------ -------- --------- --------- -------- -------- --------
 -12.000  -1.7709   0.03090   0.02517   0.0571   0.6995   0.0104
 -11.500  -1.7467   0.02909   0.02327   0.0609   0.6973   0.0108
 -11.000  -1.7200   0.02746   0.02156   0.0645   0.6954   0.0113
 -10.500  -1.6905   0.02604   0.02005   0.0680   0.6937   0.0116
 -10.000  -1.6603   0.02460   0.01852   0.0715   0.6917   0.0121
  -9.500  -1.6302   0.02314   0.01701   0.0751   0.6893   0.0130
  -9.000  -1.5956   0.02198   0.01580   0.0782   0.6870   0.0138
  -8.500  -1.5589   0.02097   0.01473   0.0811   0.6850   0.0144
  -8.000  -1.5224   0.01989   0.01360   0.0841   0.6828   0.0156
  -7.500  -1.4841   0.01891   0.01261   0.0869   0.6798   0.0169
  -7.000  -1.4437   0.01809   0.01174   0.0894   0.6770   0.0178
  -6.500  -1.4035   0.01718   0.01082   0.0921   0.6742   0.0197
  -6.000  -1.3615   0.01643   0.01006   0.0944   0.6710   0.0214
  -5.500  -1.3193   0.01564   0.00927   0.0969   0.6669   0.0241
  -5.000  -1.2755   0.01498   0.00859   0.0990   0.6627   0.0263
  -4.500  -1.2321   0.01428   0.00791   0.1013   0.6581   0.0303
  -4.000  -1.1878   0.01362   0.00729   0.1035   0.6526   0.0354
  -3.500  -1.1431   0.01300   0.00668   0.1056   0.6462   0.0415
  -3.000  -1.0983   0.01240   0.00613   0.1078   0.6398   0.0499
  -2.500  -1.0531   0.01182   0.00559   0.1099   0.6317   0.0603
  -2.000  -1.0088   0.01120   0.00507   0.1121   0.6235   0.0774
  -1.500  -0.9643   0.01064   0.00458   0.1144   0.6132   0.0975
  -1.000  -0.9230   0.01003   0.00411   0.1174   0.6032   0.1270
  -0.500  -0.8848   0.00945   0.00368   0.1211   0.5916   0.1648
  -0.000  -0.8426   0.00885   0.00325   0.1239   0.5779   0.2117
