  
       XFOIL         Version 6.99
  
 Calculated polar for: NACA 2412                                       
  
 1 1 Reynolds number fixed          Mach number fixed         
  
 xtrf =   1.000 (top)        1.000 (bottom)  
 Mach =   0.000     Re =     1.521 e 6     Ncrit =   9.000
  
   alpha    CL        CD       CDp       CM     Top_Xtr  Bot_Xtr
  ------ -------- --------- --------- -------- -------- --------
  -5.000   0.3583   0.00677   0.00193  -0.1554   0.7871   0.2192
  -4.500   0.4167   0.00656   0.00184  -0.1559   0.7853   0.2604
  -4.000   0.4750   0.00634   0.00176  -0.1564   0.7830   0.3056
  -3.500   0.5333   0.00614   0.00169  -0.1569   0.7802   0.3528
  -3.000   0.5914   0.00602   0.00168  -0.1573   0.7763   0.4052
  -2.500   0.6490   0.00582   0.00166  -0.1575   0.7728   0.4646
  -2.000   0.7066   0.00562   0.00162  -0.1577   0.7675   0.5164
  -1.500   0.7638   0.00553   0.00159  -0.1578   0.7595   0.5549
  -1.000   0.8206   0.00539   0.00157  -0.1577   0.7481   0.5843
  -0.500   0.8599   0.00612   0.00182  -0.1541   0.6127   0.6056
   0.000   0.9002   0.00698   0.00235  -0.1509   0.5289   0.6229
   0.500   0.9448   0.00756   0.00274  -0.1486   0.4758   0.6371
   1.000   0.9900   0.00810   0.00311  -0.1463   0.4327   0.6486
   1.500   1.0337   0.00866   0.00351  -0.1438   0.3909   0.6587
   2.000   1.0737   0.00934   0.00398  -0.1406   0.3420   0.6665
   2.500   1.1063   0.01010   0.00451  -0.1359   0.2910   0.6733
   3.000   1.1411   0.01105   0.00519  -0.1319   0.2349   0.6790
   3.500   1.1767   0.01208   0.00594  -0.1282   0.1812   0.6849
   4.000   1.2138   0.01309   0.00672  -0.1249   0.1359   0.6909
   4.500   1.2515   0.01408   0.00751  -0.1218   0.0998   0.6956
   5.000   1.2903   0.01501   0.00830  -0.1189   0.0751   0.7003
   5.500   1.3300   0.01586   0.00909  -0.1163   0.0588   0.7043
   6.000   1.3686   0.01677   0.00995  -0.1135   0.0468   0.7084
   6.500   1.4070   0.01770   0.01086  -0.1108   0.0384   0.7126
   7.000   1.4447   0.01865   0.01183  -0.1080   0.0330   0.7167
   7.500   1.4820   0.01965   0.01285  -0.1053   0.0289   0.7209
   8.000   1.5174   0.02075   0.01401  -0.1023   0.0257   0.7256
   8.500   1.5507   0.02201   0.01530  -0.0991   0.0228   0.7308
   9.000   1.5844   0.02321   0.01661  -0.0961   0.0211   0.7394
   9.500   1.6115   0.02425   0.01814  -0.0921   0.0190   0.9958
  10.000   1.6413   0.02576   0.01973  -0.0888   0.0179   0.9999
  10.500   1.6686   0.02742   0.02145  -0.0853   0.0167   0.9999
  11.000   1.6888   0.02964   0.02374  -0.0811   0.0153   0.9999
  11.500   1.7134   0.03153   0.02574  -0.0776   0.0147   0.9999
  12.000   1.7354   0.03365   0.02796  -0.0740   0.0140   0.9999
  12.500   1.7528   0.03622   0.03061  -0.0702   0.0132   0.9999
  13.000   1.7595   0.03977   0.03429  -0.0658   0.0123   0.9999
  13.500   1.7749   0.04272   0.03737  -0.0624   0.0121   0.9999
  14.000   1.7860   0.04619   0.04097  -0.0592   0.0116   0.9999
  14.500   1.7932   0.05022   0.04514  -0.0561   0.0112   0.9999
  15.000   1.7962   0.05496   0.05003  -0.0535   0.0109   0.9999
