  
       XFOIL         Version 6.99
  
 Calculated polar for: NACA 0012                                       
  
 1 1 Reynolds number fixed          Mach number fixed         
  
 xtrf =   1.000 (top)        1.000 (bottom)  
 Mach =   0.000     Re =     2.332 e 6     Ncrit =   9.000
  
   alpha    CL        CD       CDp       CM     Top_Xtr  Bot_Xtr
  ------ -------- --------- --------- -------- -------- --------
 -12.000  -0.1239   0.01406   0.00951  -0.1799   0.7745   0.0500
 -11.500  -0.0691   0.01399   0.00950  -0.1804   0.7748   0.0593
 -11.000  -0.0145   0.01396   0.00953  -0.1808   0.7751   0.0730
 -10.500   0.0398   0.01396   0.00963  -0.1812   0.7754   0.0907
 -10.000   0.0940   0.01404   0.00979  -0.1814   0.7757   0.1116
  -9.500   0.1475   0.01417   0.01003  -0.1816   0.7761   0.1367
  -9.000   0.1999   0.01437   0.01035  -0.1815   0.7765   0.1679
  -8.500   0.2512   0.01467   0.01078  -0.1812   0.7770   0.1983
  -8.000   0.3015   0.01508   0.01130  -0.1807   0.7775   0.2309
  -7.500   0.3572   0.01506   0.01139  -0.1809   0.7770   0.2643
  -7.000   0.4082   0.01634   0.01268  -0.1795   0.7698   0.2946
  -6.500   0.5204   0.00982   0.00587  -0.1876   0.7409   0.3369
  -6.000   0.5851   0.00871   0.00480  -0.1891   0.7385   0.3668
  -5.500   0.6477   0.00795   0.00407  -0.1902   0.7356   0.3921
  -5.000   0.7104   0.00715   0.00327  -0.1912   0.7324   0.4178
  -4.500   0.7729   0.00647   0.00263  -0.1923   0.7340   0.4403
  -4.000   0.8337   0.00595   0.00214  -0.1930   0.7332   0.4603
  -3.500   0.8918   0.00561   0.00184  -0.1932   0.7264   0.4796
  -3.000   0.8991   0.00769   0.00303  -0.1835   0.4755   0.4937
  -2.500   0.9084   0.00886   0.00390  -0.1741   0.3871   0.5072
  -2.000   0.9190   0.01047   0.00529  -0.1657   0.3200   0.5200
  -1.000   0.9643   0.01387   0.00832  -0.1548   0.2096   0.5449
  -0.500   0.9961   0.01509   0.00936  -0.1507   0.1651   0.5569
  -0.000   1.0309   0.01610   0.01020  -0.1471   0.1282   0.5669
