  
       XFOIL         Version 6.99
  
 Calculated polar for: NACA 0012                                       
  
 1 1 Reynolds number fixed          Mach number fixed         
  
 xtrf =   1.000 (top)        1.000 (bottom)  
 Mach =   0.000     Re =     1.521 e 6     Ncrit =   9.000
  
   alpha    CL        CD       CDp       CM     Top_Xtr  Bot_Xtr
  ------ -------- --------- --------- -------- -------- --------
 -12.000  -1.5751   0.02450   0.01914   0.0306   0.9999   0.0134
 -11.500  -1.5501   0.02277   0.01733   0.0344   0.9999   0.0141
 -11.000  -1.5200   0.02141   0.01589   0.0378   0.9999   0.0148
 -10.500  -1.4872   0.02023   0.01463   0.0410   0.9999   0.0154
 -10.000  -1.4550   0.01898   0.01328   0.0445   0.9999   0.0162
  -9.500  -1.4208   0.01785   0.01211   0.0479   0.9999   0.0175
  -9.000  -1.3826   0.01700   0.01120   0.0508   0.9999   0.0186
  -8.500  -1.3449   0.01607   0.01022   0.0539   0.9999   0.0199
  -8.000  -1.3068   0.01574   0.00935   0.0572   0.7472   0.0217
  -7.500  -1.2619   0.01513   0.00862   0.0591   0.7334   0.0232
  -7.000  -1.2171   0.01440   0.00785   0.0610   0.7261   0.0262
  -6.500  -1.1705   0.01378   0.00718   0.0627   0.7199   0.0291
  -6.000  -1.1223   0.01325   0.00662   0.0641   0.7145   0.0323
  -5.500  -1.0742   0.01268   0.00604   0.0656   0.7091   0.0378
  -5.000  -1.0252   0.01217   0.00553   0.0669   0.7039   0.0445
  -4.500  -0.9753   0.01165   0.00505   0.0681   0.6986   0.0538
  -4.000  -0.9255   0.01111   0.00458   0.0693   0.6930   0.0678
  -3.500  -0.8749   0.01054   0.00413   0.0704   0.6871   0.0866
  -3.000  -0.8244   0.00997   0.00369   0.0715   0.6815   0.1134
  -2.500  -0.7740   0.00936   0.00327   0.0726   0.6740   0.1502
  -2.000  -0.7237   0.00876   0.00288   0.0737   0.6661   0.1966
  -1.500  -0.6732   0.00818   0.00252   0.0748   0.6559   0.2514
  -1.000  -0.6227   0.00762   0.00221   0.0760   0.6439   0.3133
  -0.500  -0.5721   0.00709   0.00192   0.0771   0.6300   0.3809
  -0.000  -0.5216   0.00656   0.00165   0.0782   0.6135   0.4569
