  
       XFOIL         Version 6.99
  
 Calculated polar for: NACA 2412                                       
  
 1 1 Reynolds number fixed          Mach number fixed         
  
 xtrf =   1.000 (top)        1.000 (bottom)  
 Mach =   0.000     Re =     2.332 e 6     Ncrit =   9.000
  
   alpha    CL        CD       CDp       CM     Top_Xtr  Bot_Xtr
  ------ -------- --------- --------- -------- -------- --------
 -15.000  -0.0371   0.02052   0.01657  -0.2474   0.7662   0.0234
 -14.500   0.0006   0.02120   0.01722  -0.2454   0.7663   0.0244
 -14.000  -0.0454   0.02529   0.02133  -0.2295   0.7653   0.0249
 -13.500  -0.0148   0.02683   0.02284  -0.2269   0.7653   0.0273
 -13.000   0.0195   0.02811   0.02409  -0.2246   0.7655   0.0288
 -12.500   0.0562   0.02919   0.02517  -0.2226   0.7658   0.0325
 -12.000   0.0940   0.03026   0.02621  -0.2207   0.7662   0.0353
 -11.500   0.1338   0.03122   0.02718  -0.2190   0.7668   0.0395
 -11.000   0.1751   0.03214   0.02811  -0.2175   0.7675   0.0453
 -10.500   0.2180   0.03300   0.02899  -0.2161   0.7684   0.0520
 -10.000   0.2632   0.03378   0.02979  -0.2150   0.7693   0.0606
  -9.500   0.3113   0.03432   0.03037  -0.2143   0.7693   0.0723
  -9.000   0.3598   0.03481   0.03091  -0.2135   0.7690   0.0862
  -8.500   0.4078   0.03537   0.03153  -0.2127   0.7689   0.1044
  -8.000   0.4564   0.03587   0.03210  -0.2119   0.7687   0.1258
  -7.500   0.5050   0.03637   0.03267  -0.2110   0.7683   0.1498
  -7.000   0.5552   0.03676   0.03315  -0.2104   0.7677   0.1788
  -6.500   0.6072   0.03707   0.03355  -0.2099   0.7669   0.2103
  -6.000   0.6673   0.03693   0.03351  -0.2106   0.7656   0.2431
  -5.500   0.7564   0.03531   0.03200  -0.2153   0.7635   0.2858
  -5.000   1.1994   0.01076   0.00725  -0.2780   0.7423   0.4019
  -4.500   1.2735   0.00945   0.00595  -0.2815   0.7441   0.4362
  -4.000   1.3412   0.00804   0.00453  -0.2836   0.7398   0.4686
  -3.500   1.4004   0.00716   0.00363  -0.2840   0.7337   0.4917
  -3.000   1.3702   0.00883   0.00493  -0.2662   0.6105   0.5043
  -2.500   1.2450   0.01966   0.01574  -0.2363   0.5472   0.5056
  -2.000   1.1740   0.02745   0.02335  -0.2167   0.4916   0.5116
  -1.500   1.1900   0.02961   0.02528  -0.2105   0.4388   0.5263
  -1.000   1.2204   0.03086   0.02637  -0.2064   0.3968   0.5411
  -0.500   1.2530   0.03181   0.02706  -0.2025   0.3405   0.5536
   0.500   1.3216   0.03335   0.02799  -0.1950   0.2217   0.5745
   1.000   1.3572   0.03407   0.02843  -0.1915   0.1710   0.5818
   1.500   1.3937   0.03476   0.02888  -0.1881   0.1252   0.5911
   2.000   1.4311   0.03543   0.02933  -0.1849   0.0899   0.5981
   2.500   1.4695   0.03611   0.02988  -0.1819   0.0678   0.6050
   3.000   1.5082   0.03684   0.03054  -0.1789   0.0533   0.6114
   3.500   1.5462   0.03765   0.03126  -0.1759   0.0424   0.6166
   4.000   1.5837   0.03851   0.03209  -0.1730   0.0350   0.6221
   4.500   1.6202   0.03944   0.03300  -0.1698   0.0294   0.6273
   5.000   1.6560   0.04044   0.03399  -0.1667   0.0256   0.6318
   5.500   1.6908   0.04151   0.03507  -0.1634   0.0223   0.6352
   6.000   1.7246   0.04267   0.03623  -0.1601   0.0196   0.6388
   6.500   1.7579   0.04386   0.03746  -0.1567   0.0179   0.6419
   7.000   1.7893   0.04517   0.03879  -0.1532   0.0162   0.6452
   7.500   1.8196   0.04658   0.04025  -0.1495   0.0149   0.6480
   8.000   1.8493   0.04806   0.04177  -0.1459   0.0139   0.6505
   8.500   1.8739   0.04996   0.04372  -0.1417   0.0126   0.6527
   9.000   1.8979   0.05193   0.04577  -0.1376   0.0119   0.6545
   9.500   1.9221   0.05385   0.04776  -0.1336   0.0114   0.6564
  10.000   1.9441   0.05598   0.04996  -0.1295   0.0107   0.6588
  10.500   1.9591   0.05879   0.05286  -0.1248   0.0099   0.6611
  11.000   1.9749   0.06159   0.05576  -0.1204   0.0095   0.6629
  11.500   1.9918   0.06427   0.05854  -0.1163   0.0092   0.6642
  12.000   2.0015   0.06774   0.06213  -0.1118   0.0089   0.6652
  12.500   2.0120   0.07118   0.06567  -0.1077   0.0085   0.6662
  13.000   2.0142   0.07564   0.07025  -0.1034   0.0080   0.6673
  13.500   2.0082   0.08118   0.07596  -0.0992   0.0075   0.6685
  14.000   2.0021   0.08713   0.08208  -0.0959   0.0074   0.6701
  14.500   1.9979   0.09317   0.08828  -0.0937   0.0073   0.6718
  15.000   1.9903   0.09992   0.09520  -0.0923   0.0071   0.6734
  15.500   1.9795   0.10722   0.10268  -0.0918   0.0070   0.6740
  16.000   1.9649   0.11522   0.11087  -0.0924   0.0068   0.6745
  16.500   1.9480   0.12379   0.11963  -0.0941   0.0067   0.6750
  17.000   1.9292   0.13286   0.12888  -0.0969   0.0065   0.6757
  17.500   1.9093   0.14225   0.13847  -0.1008   0.0064   0.6764
  18.000   1.8865   0.15242   0.14882  -0.1060   0.0063   0.6771
  18.500   1.8610   0.16344   0.16004  -0.1128   0.0062   0.6777
  19.000   1.8340   0.17510   0.17191  -0.1209   0.0060   0.6783
  19.500   1.8024   0.18816   0.18520  -0.1309   0.0059   0.6788
  20.000   1.7665   0.20258   0.19985  -0.1430   0.0058   0.6793
  20.500   1.7283   0.21822   0.21573  -0.1569   0.0058   0.6796
  21.000   1.6899   0.23495   0.23269  -0.1724   0.0057   0.6798
  21.500   1.6548   0.25192   0.24987  -0.1886   0.0055   0.6800
  22.000   1.6389   0.26408   0.26218  -0.2002   0.0055   0.6806
  22.500   1.6267   0.27550   0.27373  -0.2113   0.0054   0.6814
  23.000   1.6164   0.28668   0.28503  -0.2223   0.0053   0.6822
  23.500   1.6078   0.29764   0.29611  -0.2332   0.0052   0.6827
  24.000   1.5998   0.30882   0.30740  -0.2443   0.0049   0.6830
  24.500   1.5891   0.32188   0.32058  -0.2571   0.0047   0.6832
  25.000   1.5802   0.33543   0.33422  -0.2701   0.0043   0.6836
