  
       XFOIL         Version 6.99
  
 Calculated polar for: NACA 2412                                       
  
 1 1 Reynolds number fixed          Mach number fixed         
  
 xtrf =   1.000 (top)        1.000 (bottom)  
 Mach =   0.000     Re =     1.521 e 6     Ncrit =   9.000
  
   alpha    CL        CD       CDp       CM     Top_Xtr  Bot_Xtr
  ------ -------- --------- --------- -------- -------- --------
  -5.000   0.5083   0.00704   0.00234  -0.1781   0.7788   0.2657
  -4.500   0.5665   0.00694   0.00237  -0.1786   0.7766   0.3096
  -4.000   0.6244   0.00688   0.00243  -0.1790   0.7746   0.3533
  -3.500   0.6826   0.00660   0.00230  -0.1794   0.7727   0.4006
  -3.000   0.7406   0.00634   0.00220  -0.1797   0.7695   0.4547
  -2.500   0.7987   0.00611   0.00207  -0.1800   0.7649   0.5012
  -2.000   0.8563   0.00604   0.00206  -0.1802   0.7590   0.5384
  -1.500   0.9129   0.00581   0.00195  -0.1801   0.7523   0.5657
  -1.000   0.9691   0.00566   0.00187  -0.1799   0.7377   0.5876
  -0.500   0.9891   0.00712   0.00260  -0.1724   0.5547   0.6029
   0.000   1.0243   0.00796   0.00317  -0.1681   0.4881   0.6173
   0.500   1.0606   0.00863   0.00368  -0.1641   0.4424   0.6293
   1.000   1.0901   0.00930   0.00421  -0.1587   0.4015   0.6393
   1.500   1.1216   0.01021   0.00492  -0.1539   0.3536   0.6484
   2.000   1.1527   0.01126   0.00575  -0.1494   0.3026   0.6556
   2.500   1.1830   0.01246   0.00668  -0.1448   0.2466   0.6624
   3.000   1.2155   0.01366   0.00760  -0.1408   0.1923   0.6680
   3.500   1.2497   0.01483   0.00853  -0.1371   0.1444   0.6731
   4.000   1.2850   0.01600   0.00946  -0.1337   0.1060   0.6789
   4.500   1.3226   0.01703   0.01036  -0.1307   0.0798   0.6824
   5.000   1.3598   0.01809   0.01130  -0.1277   0.0606   0.6865
   5.500   1.3982   0.01907   0.01223  -0.1250   0.0491   0.6899
   6.000   1.4358   0.02008   0.01321  -0.1221   0.0402   0.6934
   6.500   1.4725   0.02116   0.01427  -0.1192   0.0342   0.6971
   7.000   1.5089   0.02223   0.01536  -0.1164   0.0297   0.7003
   7.500   1.5426   0.02349   0.01661  -0.1132   0.0258   0.7037
   8.000   1.5773   0.02463   0.01782  -0.1103   0.0234   0.7067
   8.500   1.6086   0.02603   0.01927  -0.1069   0.0212   0.7099
   9.000   1.6399   0.02741   0.02072  -0.1037   0.0195   0.7128
   9.500   1.6666   0.02913   0.02252  -0.0999   0.0177   0.7158
  10.000   1.6952   0.03071   0.02419  -0.0966   0.0167   0.7188
  10.500   1.7194   0.03264   0.02619  -0.0928   0.0156   0.7216
  11.000   1.7391   0.03499   0.02866  -0.0887   0.0145   0.7251
  11.500   1.7611   0.03715   0.03095  -0.0851   0.0139   0.7281
  12.000   1.7809   0.03957   0.03348  -0.0814   0.0132   0.7315
  12.500   1.7964   0.04243   0.03645  -0.0776   0.0125   0.7383
  13.500   1.8126   0.04925   0.04399  -0.0695   0.0115   0.9998
  14.000   1.8209   0.05319   0.04806  -0.0663   0.0111   0.9998
  14.500   1.8251   0.05772   0.05275  -0.0633   0.0107   0.9998
  15.000   1.8243   0.06323   0.05841  -0.0610   0.0104   0.9998
