  
       XFOIL         Version 6.99
  
 Calculated polar for: NACA 0012                                       
  
 1 1 Reynolds number fixed          Mach number fixed         
  
 xtrf =   1.000 (top)        1.000 (bottom)  
 Mach =   0.000     Re =     2.332 e 6     Ncrit =   9.000
  
   alpha    CL        CD       CDp       CM     Top_Xtr  Bot_Xtr
  ------ -------- --------- --------- -------- -------- --------
 -12.000  -1.7941   0.03316   0.02746   0.0604   0.6944   0.0102
 -11.500  -1.7715   0.03121   0.02542   0.0643   0.6926   0.0106
 -11.000  -1.7462   0.02949   0.02362   0.0681   0.6905   0.0110
 -10.500  -1.7181   0.02795   0.02199   0.0717   0.6886   0.0113
 -10.000  -1.6880   0.02652   0.02047   0.0751   0.6870   0.0116
  -9.500  -1.6597   0.02492   0.01880   0.0789   0.6851   0.0126
  -9.000  -1.6262   0.02367   0.01751   0.0822   0.6826   0.0134
  -8.500  -1.5906   0.02259   0.01637   0.0852   0.6802   0.0141
  -8.000  -1.5547   0.02147   0.01520   0.0882   0.6781   0.0150
  -7.500  -1.5172   0.02043   0.01413   0.0911   0.6759   0.0163
  -7.000  -1.4779   0.01953   0.01320   0.0938   0.6728   0.0173
  -6.500  -1.4382   0.01860   0.01225   0.0964   0.6695   0.0189
  -6.000  -1.3970   0.01778   0.01142   0.0989   0.6662   0.0208
  -5.500  -1.3554   0.01699   0.01060   0.1014   0.6625   0.0229
  -5.000  -1.3127   0.01625   0.00987   0.1037   0.6582   0.0252
  -4.500  -1.2696   0.01551   0.00915   0.1060   0.6532   0.0288
  -4.000  -1.2260   0.01484   0.00847   0.1082   0.6479   0.0332
  -3.500  -1.1819   0.01418   0.00784   0.1104   0.6420   0.0384
  -3.000  -1.1377   0.01353   0.00722   0.1126   0.6347   0.0460
  -2.500  -1.0938   0.01288   0.00663   0.1148   0.6278   0.0561
  -2.000  -1.0497   0.01225   0.00606   0.1171   0.6189   0.0692
  -1.500  -1.0066   0.01159   0.00550   0.1195   0.6103   0.0886
  -1.000  -0.9643   0.01093   0.00494   0.1221   0.5993   0.1146
  -0.500  -0.9238   0.01023   0.00439   0.1251   0.5888   0.1483
  -0.000  -0.8856   0.00953   0.00385   0.1286   0.5767   0.1904
