  
       XFOIL         Version 6.99
  
 Calculated polar for: NACA 2412                                       
  
 1 1 Reynolds number fixed          Mach number fixed         
  
 xtrf =   1.000 (top)        1.000 (bottom)  
 Mach =   0.000     Re =     1.521 e 6     Ncrit =   9.000
  
   alpha    CL        CD       CDp       CM     Top_Xtr  Bot_Xtr
  ------ -------- --------- --------- -------- -------- --------
  -5.000  -1.1129   0.01470   0.00817   0.0603   0.6658   0.0222
  -4.500  -1.0654   0.01394   0.00739   0.0620   0.6613   0.0247
  -4.000  -1.0162   0.01341   0.00684   0.0635   0.6555   0.0267
  -3.500  -0.9675   0.01276   0.00619   0.0651   0.6495   0.0304
  -3.000  -0.9179   0.01222   0.00565   0.0665   0.6429   0.0342
  -2.500  -0.8678   0.01172   0.00515   0.0679   0.6350   0.0391
  -2.000  -0.8176   0.01125   0.00469   0.0692   0.6268   0.0455
  -1.500  -0.7674   0.01077   0.00425   0.0705   0.6171   0.0551
  -1.000  -0.7171   0.01031   0.00385   0.0718   0.6072   0.0684
   0.000  -0.6164   0.00946   0.00314   0.0744   0.5839   0.1105
   0.500  -0.5661   0.00903   0.00284   0.0757   0.5715   0.1431
   1.000  -0.5165   0.00858   0.00255   0.0770   0.5583   0.1879
   1.500  -0.4672   0.00812   0.00228   0.0784   0.5445   0.2459
   2.000  -0.4185   0.00762   0.00202   0.0799   0.5302   0.3220
   2.500  -0.3750   0.00674   0.00166   0.0822   0.5161   0.4731
