  
       XFOIL         Version 6.99
  
 Calculated polar for: NACA 0012                                       
  
 1 1 Reynolds number fixed          Mach number fixed         
  
 xtrf =   1.000 (top)        1.000 (bottom)  
 Mach =   0.000     Re =     1.521 e 6     Ncrit =   9.000
  
   alpha    CL        CD       CDp       CM     Top_Xtr  Bot_Xtr
  ------ -------- --------- --------- -------- -------- --------
 -12.000   0.0712   0.04132   0.03695  -0.2012   0.7701   0.0839
 -11.500   0.1242   0.04198   0.03766  -0.2015   0.7701   0.1037
 -11.000   0.1767   0.04264   0.03839  -0.2017   0.7702   0.1269
 -10.500   0.2292   0.04329   0.03913  -0.2019   0.7703   0.1563
 -10.000   0.2814   0.04395   0.03987  -0.2019   0.7703   0.1873
  -9.500   0.3333   0.04463   0.04064  -0.2017   0.7703   0.2188
  -9.000   0.3850   0.04532   0.04141  -0.2015   0.7704   0.2506
  -8.500   0.4364   0.04603   0.04219  -0.2011   0.7704   0.2803
  -8.000   0.4877   0.04672   0.04297  -0.2007   0.7704   0.3097
  -7.000   0.5815   0.04750   0.04389  -0.1982   0.7704   0.3598
  -6.500   0.6279   0.04784   0.04430  -0.1968   0.7703   0.3825
  -6.000   0.6738   0.04815   0.04467  -0.1953   0.7703   0.4024
  -5.500   0.7175   0.04817   0.04476  -0.1934   0.7701   0.4222
  -5.000   0.7552   0.04786   0.04453  -0.1906   0.7698   0.4393
  -4.500   0.7912   0.04341   0.04012  -0.1866   0.7501   0.4556
  -4.000   0.9363   0.03519   0.03193  -0.1974   0.7308   0.4797
  -3.500   0.9570   0.03690   0.03373  -0.1924   0.7232   0.4921
  -3.000   0.9777   0.03739   0.03305  -0.1873   0.4778   0.5035
  -2.500   1.0112   0.03795   0.03302  -0.1835   0.3633   0.5147
  -2.000   1.0533   0.03801   0.03268  -0.1808   0.2799   0.5266
  -1.500   1.0933   0.03835   0.03267  -0.1779   0.2106   0.5366
  -1.000   1.1343   0.03867   0.03272  -0.1751   0.1556   0.5470
  -0.500   1.1775   0.03886   0.03268  -0.1725   0.1143   0.5560
  -0.000   1.2202   0.03914   0.03280  -0.1700   0.0849   0.5648
