  
       XFOIL         Version 6.99
  
 Calculated polar for: NACA 2412                                       
  
 1 1 Reynolds number fixed          Mach number fixed         
  
 xtrf =   1.000 (top)        1.000 (bottom)  
 Mach =   0.000     Re =     2.332 e 6     Ncrit =   9.000
  
   alpha    CL        CD       CDp       CM     Top_Xtr  Bot_Xtr
  ------ -------- --------- --------- -------- -------- --------
 -15.000  -1.6321   0.03012   0.02610  -0.0213   0.9999   0.0092
 -14.500  -1.6210   0.02744   0.02327  -0.0174   0.9999   0.0095
 -14.000  -1.6030   0.02538   0.02109  -0.0134   0.9999   0.0097
 -13.500  -1.5806   0.02369   0.01930  -0.0095   0.9999   0.0100
 -13.000  -1.5544   0.02229   0.01781  -0.0056   0.9999   0.0103
 -12.500  -1.5254   0.02110   0.01652  -0.0017   0.9999   0.0106
 -11.500  -1.4559   0.01944   0.01407   0.0048   0.7325   0.0111
 -11.000  -1.4183   0.01813   0.01262   0.0075   0.7262   0.0118
 -10.500  -1.3751   0.01720   0.01163   0.0095   0.7226   0.0124
 -10.000  -1.3297   0.01642   0.01077   0.0112   0.7188   0.0130
  -9.500  -1.2827   0.01574   0.01000   0.0127   0.7147   0.0134
  -9.000  -1.2359   0.01491   0.00909   0.0143   0.7115   0.0142
  -8.500  -1.1879   0.01420   0.00833   0.0156   0.7079   0.0153
  -8.000  -1.1380   0.01363   0.00772   0.0168   0.7043   0.0162
  -7.500  -1.0874   0.01302   0.00707   0.0178   0.7002   0.0170
  -7.000  -1.0369   0.01239   0.00641   0.0189   0.6967   0.0187
  -6.500  -0.9845   0.01189   0.00589   0.0196   0.6932   0.0199
  -6.000  -0.9324   0.01131   0.00531   0.0205   0.6894   0.0222
  -5.500  -0.8791   0.01088   0.00486   0.0211   0.6855   0.0239
  -5.000  -0.8260   0.01035   0.00436   0.0218   0.6806   0.0271
  -4.500  -0.7721   0.00992   0.00393   0.0224   0.6747   0.0305
  -4.000  -0.7178   0.00953   0.00355   0.0229   0.6683   0.0345
  -3.500  -0.6634   0.00915   0.00318   0.0233   0.6599   0.0398
  -3.000  -0.6088   0.00878   0.00285   0.0238   0.6510   0.0480
  -2.500  -0.5542   0.00843   0.00253   0.0242   0.6401   0.0590
  -2.000  -0.4994   0.00810   0.00225   0.0246   0.6273   0.0731
  -1.500  -0.4444   0.00779   0.00201   0.0250   0.6139   0.0925
  -1.000  -0.3894   0.00750   0.00178   0.0253   0.5988   0.1172
  -0.500  -0.3346   0.00720   0.00158   0.0256   0.5823   0.1515
  -0.000  -0.2797   0.00693   0.00141   0.0259   0.5647   0.1922
   0.500  -0.2248   0.00665   0.00127   0.0262   0.5465   0.2427
   1.000  -0.1701   0.00637   0.00115   0.0265   0.5279   0.3055
   1.500  -0.1160   0.00602   0.00103   0.0269   0.5094   0.3936
   2.000  -0.0649   0.00534   0.00087   0.0276   0.4915   0.5718
   2.500  -0.0129   0.00479   0.00080   0.0284   0.4741   0.7509
   3.000   0.0453   0.00487   0.00085   0.0281   0.4567   0.7634
   3.500   0.1035   0.00497   0.00089   0.0278   0.4389   0.7712
   4.000   0.1616   0.00508   0.00096   0.0275   0.4200   0.7773
   4.500   0.2199   0.00524   0.00104   0.0271   0.3980   0.7811
   5.000   0.2775   0.00541   0.00113   0.0268   0.3713   0.7873
   5.500   0.3348   0.00563   0.00126   0.0265   0.3399   0.7923
   6.000   0.3920   0.00590   0.00142   0.0262   0.3059   0.7959
   6.500   0.4487   0.00625   0.00162   0.0259   0.2659   0.7979
   7.000   0.5050   0.00663   0.00183   0.0256   0.2247   0.7976
   7.500   0.5606   0.00709   0.00211   0.0254   0.1812   0.7973
   8.000   0.6158   0.00759   0.00243   0.0252   0.1417   0.7971
   8.500   0.6706   0.00811   0.00279   0.0250   0.1074   0.7970
   9.000   0.7252   0.00862   0.00319   0.0249   0.0822   0.7968
   9.500   0.7793   0.00915   0.00361   0.0248   0.0632   0.7968
  10.000   0.8335   0.00965   0.00404   0.0247   0.0507   0.7967
  10.500   0.8873   0.01016   0.00451   0.0246   0.0418   0.7968
  11.000   0.9404   0.01070   0.00502   0.0246   0.0348   0.7969
  11.500   0.9932   0.01125   0.00556   0.0246   0.0300   0.7971
  12.000   1.0452   0.01184   0.00615   0.0247   0.0261   0.7974
  12.500   1.0959   0.01252   0.00683   0.0250   0.0226   0.7978
  13.000   1.1469   0.01311   0.00745   0.0251   0.0209   0.7982
  13.500   1.1956   0.01390   0.00826   0.0255   0.0187   0.7988
  14.000   1.2445   0.01459   0.00899   0.0259   0.0175   0.7994
  15.000   1.3357   0.01634   0.01086   0.0272   0.0149   0.8042
  15.500   1.3789   0.01729   0.01186   0.0281   0.0140   0.8076
  16.000   1.4169   0.01853   0.01318   0.0295   0.0129   0.8115
  16.500   1.4521   0.01981   0.01457   0.0311   0.0124   0.8164
  17.000   1.4787   0.02113   0.01602   0.0339   0.0120   0.8283
  17.500   1.5014   0.02303   0.01809   0.0357   0.0115   0.8511
  18.000   1.5161   0.02595   0.02148   0.0360   0.0110   1.0001
  18.500   1.5273   0.03072   0.02638   0.0338   0.0104   1.0001
  19.000   1.5257   0.03647   0.03230   0.0323   0.0100   1.0001
  19.500   1.5278   0.04182   0.03780   0.0308   0.0099   1.0001
  20.000   1.5218   0.04824   0.04437   0.0289   0.0098   1.0001
  20.500   1.5084   0.05576   0.05205   0.0264   0.0096   1.0001
  21.000   1.4904   0.06442   0.06089   0.0231   0.0095   1.0001
  21.500   1.4654   0.07450   0.07115   0.0190   0.0094   1.0001
  22.000   1.4341   0.08578   0.08263   0.0142   0.0092   1.0001
  22.500   1.3935   0.09895   0.09601   0.0083   0.0092   1.0001
  23.000   1.3474   0.11353   0.11081   0.0014   0.0091   1.0001
  23.500   1.3004   0.12890   0.12639  -0.0064   0.0091   1.0001
  24.000   1.2496   0.14572   0.14343  -0.0155   0.0090   1.0001
  24.500   1.2071   0.16188   0.15979  -0.0249   0.0090   1.0001
  25.000   1.1731   0.17727   0.17535  -0.0345   0.0088   1.0001
