  
       XFOIL         Version 6.99
  
 Calculated polar for: NACA 0012                                       
  
 1 1 Reynolds number fixed          Mach number fixed         
  
 xtrf =   1.000 (top)        1.000 (bottom)  
 Mach =   0.000     Re =     2.332 e 6     Ncrit =   9.000
  
   alpha    CL        CD       CDp       CM     Top_Xtr  Bot_Xtr
  ------ -------- --------- --------- -------- -------- --------
 -12.000   0.1206   0.04170   0.03775  -0.2067   0.7560   0.0802
 -11.500   0.1721   0.04227   0.03837  -0.2068   0.7560   0.0977
 -11.000   0.2236   0.04283   0.03901  -0.2067   0.7560   0.1205
 -10.500   0.2748   0.04342   0.03966  -0.2066   0.7560   0.1443
 -10.000   0.3261   0.04400   0.04034  -0.2064   0.7561   0.1749
  -9.500   0.3770   0.04460   0.04102  -0.2060   0.7561   0.2041
  -9.000   0.4276   0.04522   0.04171  -0.2055   0.7561   0.2315
  -8.500   0.4780   0.04581   0.04239  -0.2050   0.7561   0.2619
  -8.000   0.5255   0.04622   0.04288  -0.2039   0.7561   0.2898
  -7.500   0.5723   0.04658   0.04330  -0.2027   0.7561   0.3134
  -7.000   0.6191   0.04693   0.04372  -0.2014   0.7560   0.3381
  -6.500   0.6656   0.04720   0.04407  -0.2000   0.7560   0.3602
  -6.000   0.7111   0.04733   0.04427  -0.1984   0.7559   0.3824
  -5.500   0.7541   0.04698   0.04399  -0.1965   0.7555   0.4014
  -5.000   0.8641   0.03735   0.03438  -0.2028   0.7308   0.4267
  -4.000   0.9317   0.03877   0.03520  -0.1967   0.5689   0.4560
  -3.500   0.9642   0.03923   0.03485  -0.1929   0.4087   0.4694
  -3.000   1.0045   0.03950   0.03469  -0.1902   0.3180   0.4824
  -2.500   1.0506   0.03938   0.03425  -0.1882   0.2468   0.4959
  -2.000   1.0926   0.03964   0.03422  -0.1857   0.1866   0.5071
  -1.500   1.1343   0.03996   0.03428  -0.1830   0.1356   0.5178
  -1.000   1.1771   0.04029   0.03444  -0.1805   0.1021   0.5284
  -0.500   1.2205   0.04056   0.03458  -0.1781   0.0793   0.5374
  -0.000   1.2651   0.04076   0.03469  -0.1758   0.0617   0.5473
