  
       XFOIL         Version 6.99
  
 Calculated polar for: NACA 2412                                       
  
 1 1 Reynolds number fixed          Mach number fixed         
  
 xtrf =   1.000 (top)        1.000 (bottom)  
 Mach =   0.000     Re =     1.521 e 6     Ncrit =   9.000
  
   alpha    CL        CD       CDp       CM     Top_Xtr  Bot_Xtr
  ------ -------- --------- --------- -------- -------- --------
  -5.000  -1.1929   0.01639   0.00988   0.0694   0.6575   0.0209
  -4.500  -1.1465   0.01576   0.00920   0.0712   0.6528   0.0221
  -4.000  -1.1002   0.01495   0.00840   0.0732   0.6472   0.0248
  -3.500  -1.0528   0.01438   0.00777   0.0749   0.6412   0.0270
  -3.000  -1.0056   0.01372   0.00714   0.0768   0.6348   0.0305
  -2.500  -0.9582   0.01313   0.00654   0.0786   0.6275   0.0345
  -2.000  -0.9105   0.01259   0.00600   0.0803   0.6197   0.0396
  -1.500  -0.8630   0.01207   0.00548   0.0821   0.6108   0.0460
  -1.000  -0.8163   0.01155   0.00501   0.0841   0.6016   0.0554
  -0.500  -0.7724   0.01107   0.00457   0.0867   0.5911   0.0681
   0.000  -0.7283   0.01061   0.00418   0.0892   0.5806   0.0844
   0.500  -0.6825   0.01013   0.00379   0.0914   0.5693   0.1085
   1.000  -0.6365   0.00966   0.00343   0.0935   0.5568   0.1402
   1.500  -0.5911   0.00916   0.00308   0.0957   0.5445   0.1834
   2.000  -0.5456   0.00865   0.00276   0.0979   0.5321   0.2387
   3.000  -0.4629   0.00707   0.00197   0.1035   0.5060   0.4674
   4.000  -0.3681   0.00612   0.00180   0.1072   0.4807   0.7419
   4.500  -0.3094   0.00653   0.00215   0.1069   0.4669   0.7481
   5.000  -0.2516   0.00661   0.00221   0.1068   0.4525   0.7544
   5.500  -0.1928   0.00691   0.00249   0.1065   0.4372   0.7593
   6.000  -0.1341   0.00720   0.00274   0.1061   0.4207   0.7625
   6.500  -0.0752   0.00752   0.00301   0.1056   0.4032   0.7652
   7.000  -0.0183   0.00747   0.00297   0.1055   0.3831   0.7712
   7.500   0.0398   0.00769   0.00313   0.1050   0.3585   0.7731
   8.000   0.0976   0.00776   0.00311   0.1044   0.3315   0.7718
   8.500   0.1552   0.00790   0.00313   0.1038   0.3004   0.7706
   9.000   0.2126   0.00812   0.00322   0.1031   0.2654   0.7695
   9.500   0.2697   0.00845   0.00339   0.1024   0.2264   0.7684
  10.000   0.3265   0.00886   0.00366   0.1017   0.1874   0.7674
  10.500   0.3829   0.00939   0.00403   0.1010   0.1473   0.7665
  11.000   0.4390   0.00996   0.00447   0.1004   0.1135   0.7658
  11.500   0.4949   0.01057   0.00498   0.0997   0.0869   0.7651
  12.000   0.5503   0.01120   0.00552   0.0990   0.0670   0.7645
  12.500   0.6050   0.01162   0.00590   0.0984   0.0540   0.7642
  13.000   0.6594   0.01210   0.00635   0.0977   0.0445   0.7639
  13.500   0.7133   0.01263   0.00688   0.0971   0.0377   0.7635
  14.000   0.7667   0.01324   0.00748   0.0965   0.0324   0.7631
  14.500   0.8191   0.01398   0.00823   0.0958   0.0281   0.7626
  15.000   0.8718   0.01460   0.00890   0.0951   0.0257   0.7622
