  
       XFOIL         Version 6.99
  
 Calculated polar for: NACA 0012                                       
  
 1 1 Reynolds number fixed          Mach number fixed         
  
 xtrf =   1.000 (top)        1.000 (bottom)  
 Mach =   0.000     Re =     1.521 e 6     Ncrit =   9.000
  
   alpha    CL        CD       CDp       CM     Top_Xtr  Bot_Xtr
  ------ -------- --------- --------- -------- -------- --------
 -12.000  -0.0859   0.01815   0.01344  -0.1859   0.7902   0.0602
 -11.500  -0.0359   0.01832   0.01366  -0.1857   0.7903   0.0719
 -11.000   0.0132   0.01855   0.01396  -0.1853   0.7903   0.0895
 -10.500   0.0605   0.01892   0.01441  -0.1846   0.7904   0.1098
 -10.000   0.1056   0.01941   0.01499  -0.1835   0.7904   0.1354
  -9.500   0.1481   0.02007   0.01575  -0.1820   0.7904   0.1626
  -9.000   0.1871   0.02093   0.01670  -0.1798   0.7904   0.1916
  -8.500   0.2160   0.02210   0.01795  -0.1759   0.7902   0.2192
  -8.000   0.2488   0.02325   0.01919  -0.1727   0.7902   0.2497
  -7.500   0.2852   0.02430   0.02031  -0.1701   0.7904   0.2763
  -7.000   0.3378   0.02462   0.02072  -0.1698   0.7902   0.3112
  -6.500   0.4323   0.02299   0.01923  -0.1755   0.7891   0.3516
  -6.000   0.5084   0.02490   0.02118  -0.1783   0.7864   0.3818
  -5.500   0.5528   0.02511   0.02149  -0.1765   0.7862   0.4073
  -5.000   0.7659   0.00980   0.00571  -0.1991   0.7431   0.4507
  -4.500   0.8250   0.00946   0.00541  -0.1994   0.7396   0.4709
  -4.000   0.8931   0.00815   0.00408  -0.2014   0.7399   0.4904
  -3.500   0.9538   0.00726   0.00325  -0.2019   0.7355   0.5074
  -3.000   1.0119   0.00671   0.00275  -0.2019   0.7242   0.5226
  -2.500   0.9703   0.00952   0.00468  -0.1824   0.4787   0.5316
  -2.000   0.9545   0.01285   0.00775  -0.1703   0.3965   0.5415
  -1.500   0.9603   0.01587   0.01051  -0.1628   0.3261   0.5522
  -1.000   0.9802   0.01768   0.01208  -0.1570   0.2647   0.5630
  -0.500   1.0068   0.01898   0.01310  -0.1520   0.2052   0.5730
  -0.000   1.0398   0.01993   0.01385  -0.1480   0.1576   0.5831
