  
       XFOIL         Version 6.99
  
 Calculated polar for: NACA 2412                                       
  
 1 1 Reynolds number fixed          Mach number fixed         
  
 xtrf =   1.000 (top)        1.000 (bottom)  
 Mach =   0.000     Re =     1.521 e 6     Ncrit =   9.000
  
   alpha    CL        CD       CDp       CM     Top_Xtr  Bot_Xtr
  ------ -------- --------- --------- -------- -------- --------
 -15.000  -0.1526   0.04262   0.03864  -0.2209   0.7734   0.0247
 -14.500  -0.0799   0.04380   0.03974  -0.2250   0.7750   0.0267
 -14.000  -0.0142   0.04461   0.04049  -0.2285   0.7754   0.0295
 -13.500   0.0423   0.04546   0.04127  -0.2298   0.7756   0.0317
 -13.000   0.0979   0.04615   0.04194  -0.2311   0.7757   0.0360
 -12.500   0.1513   0.04691   0.04266  -0.2317   0.7758   0.0407
 -12.000   0.2035   0.04769   0.04342  -0.2320   0.7759   0.0459
 -11.500   0.2553   0.04848   0.04421  -0.2322   0.7759   0.0525
 -11.000   0.3067   0.04927   0.04501  -0.2322   0.7760   0.0615
 -10.500   0.3579   0.05006   0.04584  -0.2322   0.7760   0.0743
 -10.000   0.4084   0.05088   0.04671  -0.2320   0.7760   0.0895
  -9.500   0.4575   0.05164   0.04751  -0.2314   0.7760   0.1085
  -9.000   0.5046   0.05225   0.04819  -0.2306   0.7760   0.1309
  -8.500   0.5511   0.05294   0.04895  -0.2296   0.7760   0.1559
  -8.000   0.5961   0.05359   0.04968  -0.2283   0.7759   0.1828
  -7.500   0.6339   0.05413   0.05030  -0.2259   0.7757   0.2105
  -7.000   0.6579   0.05410   0.05035  -0.2214   0.7752   0.2360
  -6.500   0.6630   0.05315   0.04947  -0.2139   0.7715   0.2568
  -6.000   0.7089   0.05362   0.05002  -0.2126   0.7700   0.2858
  -5.500   0.7587   0.05397   0.05047  -0.2117   0.7683   0.3200
  -5.000   0.8165   0.05400   0.05059  -0.2118   0.7663   0.3536
  -4.500   0.8867   0.05362   0.05031  -0.2137   0.7645   0.3890
  -4.000   0.9847   0.05221   0.04900  -0.2195   0.7631   0.4304
  -3.500   1.0509   0.04859   0.04545  -0.2200   0.7505   0.4624
  -3.000   1.1163   0.04606   0.04299  -0.2207   0.7400   0.4889
  -2.500   1.1555   0.04575   0.04275  -0.2180   0.7282   0.5079
  -2.000   1.1959   0.04523   0.04135  -0.2156   0.5491   0.5243
  -1.500   1.2346   0.04563   0.04136  -0.2127   0.4748   0.5378
  -1.000   1.2733   0.04624   0.04168  -0.2098   0.4218   0.5493
  -0.500   1.3120   0.04680   0.04198  -0.2069   0.3662   0.5604
  -0.000   1.3515   0.04721   0.04208  -0.2041   0.3049   0.5694
   0.500   1.3929   0.04726   0.04175  -0.2014   0.2356   0.5781
   1.000   1.4302   0.04768   0.04178  -0.1982   0.1720   0.5853
   1.500   1.4668   0.04822   0.04203  -0.1948   0.1208   0.5922
   2.000   1.5036   0.04885   0.04245  -0.1916   0.0863   0.5986
   3.000   1.5775   0.05031   0.04369  -0.1853   0.0501   0.6092
   3.500   1.6134   0.05115   0.04448  -0.1820   0.0402   0.6140
   4.000   1.6487   0.05208   0.04538  -0.1787   0.0335   0.6188
   4.500   1.6831   0.05309   0.04640  -0.1754   0.0287   0.6229
   5.000   1.7160   0.05422   0.04755  -0.1718   0.0250   0.6260
   5.500   1.7472   0.05547   0.04881  -0.1681   0.0220   0.6290
   6.000   1.7782   0.05676   0.05016  -0.1645   0.0201   0.6326
   6.500   1.8062   0.05829   0.05171  -0.1605   0.0179   0.6361
   7.000   1.8343   0.05986   0.05335  -0.1566   0.0166   0.6385
   7.500   1.8598   0.06163   0.05519  -0.1525   0.0153   0.6402
   8.000   1.8774   0.06410   0.05775  -0.1476   0.0140   0.6417
   8.500   1.8994   0.06623   0.05999  -0.1434   0.0134   0.6436
   9.000   1.9196   0.06854   0.06239  -0.1392   0.0126   0.6460
   9.500   1.9344   0.07139   0.06532  -0.1345   0.0118   0.6492
  10.000   1.9416   0.07509   0.06916  -0.1294   0.0111   0.6519
  10.500   1.9555   0.07812   0.07233  -0.1252   0.0108   0.6529
  11.000   1.9618   0.08203   0.07639  -0.1207   0.0104   0.6539
  11.500   1.9666   0.08623   0.08073  -0.1165   0.0100   0.6551
  12.000   1.9663   0.09119   0.08585  -0.1126   0.0096   0.6563
  12.500   1.9589   0.09733   0.09216  -0.1093   0.0092   0.6577
  13.000   1.9389   0.10546   0.10052  -0.1069   0.0088   0.6590
  13.500   1.9317   0.11219   0.10745  -0.1058   0.0086   0.6609
  14.000   1.9233   0.11929   0.11474  -0.1057   0.0085   0.6636
  14.500   1.9120   0.12695   0.12260  -0.1066   0.0083   0.6648
  15.000   1.8992   0.13498   0.13085  -0.1086   0.0081   0.6654
  15.500   1.8845   0.14348   0.13954  -0.1117   0.0079   0.6661
  16.000   1.8686   0.15244   0.14870  -0.1159   0.0078   0.6669
  16.500   1.8512   0.16191   0.15837  -0.1212   0.0076   0.6678
  17.000   1.8324   0.17189   0.16855  -0.1276   0.0074   0.6686
  17.500   1.8108   0.18272   0.17958  -0.1355   0.0073   0.6696
  18.000   1.7867   0.19437   0.19144  -0.1448   0.0072   0.6706
  18.500   1.7596   0.20708   0.20437  -0.1557   0.0071   0.6714
  19.000   1.7322   0.22041   0.21790  -0.1677   0.0069   0.6722
  19.500   1.7063   0.23396   0.23165  -0.1804   0.0067   0.6729
  20.000   1.6869   0.24629   0.24415  -0.1922   0.0066   0.6737
  20.500   1.6748   0.25702   0.25504  -0.2026   0.0065   0.6747
  21.000   1.6613   0.26854   0.26673  -0.2140   0.0064   0.6751
  21.500   1.6475   0.28066   0.27901  -0.2261   0.0063   0.6754
  22.000   1.6334   0.29351   0.29204  -0.2391   0.0061   0.6757
  23.500   0.9296   0.36458   0.36366  -0.1831   0.0035   0.6658
  24.000   0.9292   0.36968   0.36878  -0.1845   0.0033   0.6669
  24.500   0.9271   0.38184   0.38095  -0.1868   0.0030   0.6677
  25.000   0.9266   0.38782   0.38695  -0.1884   0.0025   0.6690
