  
       XFOIL         Version 6.99
  
 Calculated polar for: NACA 2412                                       
  
 1 1 Reynolds number fixed          Mach number fixed         
  
 xtrf =   1.000 (top)        1.000 (bottom)  
 Mach =   0.000     Re =     2.332 e 6     Ncrit =   9.000
  
   alpha    CL        CD       CDp       CM     Top_Xtr  Bot_Xtr
  ------ -------- --------- --------- -------- -------- --------
 -15.000  -0.2213   0.01311   0.00848  -0.2239   0.7477   0.0204
 -14.500  -0.1633   0.01265   0.00798  -0.2253   0.7481   0.0216
 -14.000  -0.1054   0.01212   0.00740  -0.2268   0.7486   0.0237
 -13.500  -0.0478   0.01179   0.00707  -0.2280   0.7492   0.0256
 -13.000   0.0095   0.01150   0.00678  -0.2291   0.7499   0.0286
 -12.500   0.0664   0.01139   0.00668  -0.2300   0.7507   0.0308
 -12.000   0.1233   0.01125   0.00656  -0.2309   0.7515   0.0355
 -11.500   0.1802   0.01119   0.00653  -0.2317   0.7524   0.0408
 -11.000   0.2365   0.01118   0.00657  -0.2324   0.7532   0.0473
 -10.500   0.2926   0.01120   0.00664  -0.2330   0.7541   0.0561
 -10.000   0.3485   0.01125   0.00675  -0.2335   0.7549   0.0668
  -9.500   0.4047   0.01128   0.00683  -0.2340   0.7554   0.0796
  -9.000   0.4652   0.01084   0.00644  -0.2351   0.7541   0.0998
  -8.500   0.5264   0.01036   0.00600  -0.2364   0.7526   0.1209
  -8.000   0.5861   0.01000   0.00570  -0.2373   0.7516   0.1493
  -7.500   0.6466   0.00957   0.00533  -0.2384   0.7502   0.1798
  -7.000   0.7072   0.00922   0.00502  -0.2395   0.7489   0.2120
  -6.500   0.7658   0.00914   0.00501  -0.2402   0.7475   0.2453
  -6.000   0.8197   0.00950   0.00549  -0.2400   0.7463   0.2794
  -5.500   0.8770   0.00939   0.00546  -0.2403   0.7453   0.3113
  -5.000   0.9406   0.00863   0.00477  -0.2418   0.7448   0.3484
  -4.000   1.0677   0.00724   0.00349  -0.2447   0.7465   0.4229
  -3.500   1.1260   0.00676   0.00311  -0.2450   0.7438   0.4614
  -3.000   1.1842   0.00619   0.00259  -0.2453   0.7377   0.4919
  -2.500   1.2408   0.00586   0.00234  -0.2452   0.7273   0.5159
  -2.000   1.1957   0.00870   0.00436  -0.2245   0.5235   0.5263
  -1.500   1.1892   0.01113   0.00661  -0.2131   0.4656   0.5411
  -1.000   1.1954   0.01401   0.00940  -0.2051   0.4240   0.5546
  -0.500   1.2070   0.01668   0.01193  -0.1982   0.3820   0.5663
  -0.000   1.2237   0.01878   0.01385  -0.1919   0.3344   0.5776
   0.500   1.2457   0.02040   0.01526  -0.1864   0.2846   0.5880
   1.000   1.2715   0.02176   0.01636  -0.1813   0.2317   0.5967
   1.500   1.3016   0.02289   0.01723  -0.1769   0.1783   0.6056
   2.000   1.3349   0.02388   0.01797  -0.1731   0.1335   0.6134
   2.500   1.3706   0.02480   0.01871  -0.1696   0.0999   0.6203
   3.000   1.4074   0.02571   0.01947  -0.1664   0.0746   0.6271
   3.500   1.4448   0.02661   0.02027  -0.1633   0.0573   0.6322
   4.000   1.4826   0.02752   0.02112  -0.1604   0.0462   0.6382
   4.500   1.5200   0.02847   0.02202  -0.1574   0.0378   0.6437
   5.000   1.5574   0.02944   0.02296  -0.1545   0.0318   0.6476
   5.500   1.5944   0.03044   0.02396  -0.1515   0.0275   0.6513
   6.000   1.6301   0.03151   0.02503  -0.1484   0.0238   0.6543
   6.500   1.6648   0.03266   0.02617  -0.1453   0.0208   0.6576
   7.000   1.6992   0.03385   0.02739  -0.1421   0.0191   0.6606
   7.500   1.7300   0.03529   0.02885  -0.1386   0.0170   0.6631
   8.000   1.7613   0.03669   0.03031  -0.1351   0.0158   0.6650
   8.500   1.7912   0.03819   0.03184  -0.1316   0.0146   0.6669
   9.000   1.8181   0.03993   0.03364  -0.1277   0.0132   0.6691
   9.500   1.8445   0.04174   0.03551  -0.1240   0.0127   0.6714
  10.000   1.8689   0.04368   0.03752  -0.1201   0.0120   0.6737
  10.500   1.8906   0.04587   0.03977  -0.1160   0.0111   0.6750
  11.000   1.9080   0.04848   0.04248  -0.1116   0.0105   0.6761
  11.500   1.9282   0.05086   0.04496  -0.1077   0.0101   0.6773
  12.000   1.9458   0.05350   0.04769  -0.1037   0.0097   0.6790
  12.500   1.9581   0.05670   0.05098  -0.0995   0.0092   0.6808
  13.000   1.9661   0.06041   0.05480  -0.0952   0.0087   0.6824
  13.500   1.9671   0.06493   0.05947  -0.0908   0.0082   0.6838
  14.000   1.9721   0.06924   0.06392  -0.0872   0.0081   0.6847
  14.500   1.9729   0.07428   0.06911  -0.0841   0.0080   0.6858
  15.000   1.9697   0.08017   0.07516  -0.0817   0.0078   0.6868
  15.500   1.9623   0.08687   0.08204  -0.0801   0.0076   0.6878
  16.000   1.9508   0.09440   0.08974  -0.0794   0.0074   0.6889
  16.500   1.9350   0.10277   0.09829  -0.0798   0.0072   0.6900
  17.000   1.9150   0.11191   0.10761  -0.0813   0.0071   0.6911
  17.500   1.8908   0.12191   0.11782  -0.0841   0.0069   0.6918
  18.000   1.8643   0.13264   0.12876  -0.0883   0.0067   0.6923
  18.500   1.8333   0.14452   0.14085  -0.0942   0.0066   0.6928
  19.000   1.7980   0.15756   0.15413  -0.1019   0.0064   0.6932
  19.500   1.7613   0.17150   0.16831  -0.1114   0.0063   0.6935
  20.000   1.7249   0.18605   0.18310  -0.1223   0.0062   0.6939
  20.500   1.6953   0.19967   0.19693  -0.1331   0.0062   0.6943
  21.000   1.6652   0.21389   0.21135  -0.1451   0.0062   0.6946
  21.500   1.6369   0.22826   0.22591  -0.1577   0.0061   0.6950
  22.000   1.6104   0.24293   0.24077  -0.1710   0.0061   0.6955
  22.500   1.5925   0.25580   0.25378  -0.1828   0.0060   0.6961
  23.000   1.5750   0.26919   0.26733  -0.1952   0.0058   0.6966
  23.500   1.5635   0.28111   0.27937  -0.2064   0.0057   0.6972
  24.000   1.5547   0.29250   0.29086  -0.2172   0.0055   0.6977
  24.500   1.5479   0.30362   0.30207  -0.2278   0.0052   0.6981
  25.000   1.5423   0.31471   0.31324  -0.2384   0.0050   0.6985
