  
       XFOIL         Version 6.99
  
 Calculated polar for: NACA 0012                                       
  
 1 1 Reynolds number fixed          Mach number fixed         
  
 xtrf =   1.000 (top)        1.000 (bottom)  
 Mach =   0.000     Re =     2.332 e 6     Ncrit =   9.000
  
   alpha    CL        CD       CDp       CM     Top_Xtr  Bot_Xtr
  ------ -------- --------- --------- -------- -------- --------
 -12.000   0.0317   0.01821   0.01398  -0.2009   0.7625   0.0643
 -11.500   0.0758   0.01878   0.01461  -0.1997   0.7629   0.0786
 -11.000   0.1155   0.01960   0.01551  -0.1977   0.7634   0.0949
 -10.500   0.0912   0.02333   0.01927  -0.1857   0.7632   0.1006
 -10.000   0.1272   0.02457   0.02058  -0.1834   0.7641   0.1205
  -9.500   0.1712   0.02543   0.02153  -0.1822   0.7654   0.1458
  -9.000   0.2250   0.02607   0.02226  -0.1822   0.7672   0.1761
  -8.500   0.2861   0.02720   0.02350  -0.1830   0.7692   0.2101
  -8.000   0.3371   0.02815   0.02455  -0.1825   0.7695   0.2426
  -7.500   0.3787   0.02844   0.02492  -0.1807   0.7691   0.2709
  -7.000   0.4030   0.02823   0.02476  -0.1766   0.7649   0.2952
  -6.500   0.4584   0.02801   0.02464  -0.1765   0.7620   0.3241
  -6.000   0.7927   0.00976   0.00605  -0.2188   0.7335   0.3975
  -5.500   0.8513   0.00973   0.00601  -0.2192   0.7296   0.4178
  -5.000   0.9228   0.00788   0.00413  -0.2219   0.7274   0.4383
  -4.500   0.9906   0.00676   0.00298  -0.2239   0.7293   0.4586
  -3.500   0.9946   0.00959   0.00495  -0.2022   0.4618   0.4840
  -3.000   0.9694   0.01421   0.00942  -0.1894   0.3922   0.4924
  -2.500   0.9653   0.01803   0.01304  -0.1804   0.3281   0.5045
  -2.000   0.9798   0.02005   0.01483  -0.1738   0.2705   0.5159
  -1.500   1.0048   0.02136   0.01592  -0.1686   0.2164   0.5272
  -1.000   1.0366   0.02232   0.01667  -0.1644   0.1673   0.5397
  -0.500   1.0730   0.02309   0.01727  -0.1609   0.1296   0.5501
  -0.000   1.1118   0.02377   0.01781  -0.1578   0.0998   0.5605
