  
       XFOIL         Version 6.99
  
 Calculated polar for: NACA 0012                                       
  
 1 1 Reynolds number fixed          Mach number fixed         
  
 xtrf =   1.000 (top)        1.000 (bottom)  
 Mach =   0.000     Re =     1.521 e 6     Ncrit =   9.000
  
   alpha    CL        CD       CDp       CM     Top_Xtr  Bot_Xtr
  ------ -------- --------- --------- -------- -------- --------
 -12.000  -1.4298   0.01926   0.01389   0.0116   1.0000   0.0151
 -11.500  -1.3927   0.01825   0.01280   0.0143   1.0000   0.0159
 -11.000  -1.3515   0.01736   0.01183   0.0164   1.0000   0.0166
 -10.500  -1.3121   0.01619   0.01059   0.0188   1.0000   0.0179
 -10.000  -1.2677   0.01537   0.00974   0.0205   1.0000   0.0193
  -9.500  -1.2218   0.01461   0.00892   0.0221   1.0000   0.0205
  -9.000  -1.1762   0.01376   0.00806   0.0237   1.0000   0.0226
  -8.500  -1.1280   0.01314   0.00739   0.0250   1.0000   0.0243
  -8.000  -1.0805   0.01241   0.00667   0.0264   1.0000   0.0274
  -7.500  -1.0319   0.01178   0.00604   0.0277   1.0000   0.0308
  -7.000  -0.9827   0.01123   0.00549   0.0289   1.0000   0.0345
  -6.500  -0.9339   0.01069   0.00498   0.0303   1.0000   0.0397
  -6.000  -0.8860   0.01016   0.00450   0.0319   1.0000   0.0469
  -5.500  -0.8390   0.00964   0.00405   0.0337   1.0000   0.0577
  -4.500  -0.7125   0.00853   0.00318   0.0302   0.9853   0.0968
  -4.000  -0.6506   0.00802   0.00276   0.0289   0.9237   0.1296
  -3.500  -0.6056   0.00801   0.00238   0.0314   0.7533   0.1669
  -3.000  -0.5530   0.00763   0.00210   0.0320   0.7273   0.2137
  -2.000  -0.4462   0.00686   0.00167   0.0330   0.7006   0.3241
  -1.500  -0.3918   0.00648   0.00149   0.0333   0.6874   0.3826
  -1.000  -0.3374   0.00612   0.00132   0.0337   0.6707   0.4450
  -0.500  -0.2829   0.00578   0.00117   0.0341   0.6495   0.5107
