  
       XFOIL         Version 6.99
  
 Calculated polar for: NACA 0012                                       
  
 1 1 Reynolds number fixed          Mach number fixed         
  
 xtrf =   1.000 (top)        1.000 (bottom)  
 Mach =   0.000     Re =     2.332 e 6     Ncrit =   9.000
  
   alpha    CL        CD       CDp       CM     Top_Xtr  Bot_Xtr
  ------ -------- --------- --------- -------- -------- --------
 -12.000   0.0974   0.03844   0.03445  -0.2043   0.7558   0.0774
 -11.500   0.1488   0.03896   0.03502  -0.2043   0.7558   0.0941
 -11.000   0.1998   0.03951   0.03562  -0.2042   0.7558   0.1127
 -10.500   0.2512   0.04004   0.03623  -0.2041   0.7558   0.1389
 -10.000   0.3024   0.04058   0.03687  -0.2038   0.7558   0.1686
  -9.500   0.3531   0.04115   0.03752  -0.2035   0.7558   0.1956
  -9.000   0.4304   0.03689   0.03334  -0.2072   0.7572   0.2330
  -8.500   0.4492   0.03831   0.03483  -0.2022   0.7580   0.2554
  -8.000   0.5140   0.03835   0.03496  -0.2036   0.7575   0.2877
  -7.500   0.5487   0.04314   0.03983  -0.2002   0.7558   0.3095
  -7.000   0.5953   0.04352   0.04027  -0.1989   0.7558   0.3324
  -6.500   0.6421   0.04385   0.04068  -0.1976   0.7558   0.3585
  -6.000   0.6872   0.04399   0.04089  -0.1960   0.7557   0.3797
  -5.500   0.7311   0.04388   0.04085  -0.1942   0.7554   0.3975
  -5.000   0.8731   0.03186   0.02885  -0.2049   0.7305   0.4288
  -4.500   1.0950   0.01939   0.01569  -0.2304   0.5908   0.4603
  -4.000   0.9504   0.03299   0.02966  -0.2004   0.6188   0.4593
  -3.500   0.9505   0.03553   0.03123  -0.1920   0.4331   0.4710
  -3.000   0.9875   0.03599   0.03124  -0.1887   0.3366   0.4835
  -2.500   1.0295   0.03618   0.03109  -0.1862   0.2630   0.4960
  -2.000   1.0693   0.03660   0.03122  -0.1833   0.2007   0.5088
  -1.000   1.1540   0.03719   0.03138  -0.1781   0.1134   0.5302
  -0.500   1.1977   0.03745   0.03149  -0.1757   0.0845   0.5400
  -0.000   1.2401   0.03786   0.03178  -0.1731   0.0651   0.5491
