  
       XFOIL         Version 6.99
  
 Calculated polar for: NACA 2412                                       
  
 1 1 Reynolds number fixed          Mach number fixed         
  
 xtrf =   1.000 (top)        1.000 (bottom)  
 Mach =   0.000     Re =     1.521 e 6     Ncrit =   9.000
  
   alpha    CL        CD       CDp       CM     Top_Xtr  Bot_Xtr
  ------ -------- --------- --------- -------- -------- --------
  -5.000  -1.1525   0.01543   0.00892   0.0645   0.6615   0.0216
  -4.500  -1.1060   0.01468   0.00813   0.0665   0.6565   0.0236
  -4.000  -1.0587   0.01406   0.00748   0.0683   0.6515   0.0258
  -3.500  -1.0115   0.01342   0.00685   0.0701   0.6452   0.0288
  -3.000  -0.9648   0.01292   0.00632   0.0721   0.6386   0.0316
  -2.500  -0.9186   0.01235   0.00577   0.0742   0.6314   0.0365
  -2.000  -0.8707   0.01184   0.00527   0.0760   0.6230   0.0425
  -1.500  -0.8220   0.01135   0.00481   0.0777   0.6143   0.0501
  -1.000  -0.7731   0.01090   0.00438   0.0792   0.6039   0.0607
  -0.500  -0.7241   0.01045   0.00399   0.0808   0.5938   0.0751
   0.000  -0.6756   0.00999   0.00362   0.0825   0.5827   0.0960
   0.500  -0.6272   0.00955   0.00326   0.0841   0.5699   0.1246
   1.000  -0.5788   0.00909   0.00295   0.0857   0.5576   0.1619
   1.500  -0.5309   0.00862   0.00265   0.0874   0.5449   0.2115
   2.000  -0.4835   0.00811   0.00236   0.0892   0.5314   0.2770
   2.500  -0.4382   0.00748   0.00204   0.0913   0.5177   0.3733
   3.000  -0.4099   0.00560   0.00136   0.0964   0.5053   0.7255
   3.500  -0.3517   0.00581   0.00151   0.0962   0.4912   0.7409
   4.000  -0.2932   0.00611   0.00174   0.0960   0.4773   0.7478
   4.500  -0.2352   0.00624   0.00185   0.0959   0.4628   0.7545
   5.000  -0.1766   0.00653   0.00212   0.0956   0.4478   0.7602
   5.500  -0.1180   0.00680   0.00234   0.0953   0.4321   0.7634
   6.000  -0.0597   0.00695   0.00243   0.0949   0.4147   0.7658
   6.500  -0.0022   0.00697   0.00243   0.0946   0.3958   0.7702
   7.000   0.0561   0.00730   0.00276   0.0943   0.3724   0.7756
   7.500   0.1140   0.00742   0.00279   0.0938   0.3457   0.7751
   8.000   0.1717   0.00757   0.00282   0.0931   0.3155   0.7739
   8.500   0.2292   0.00776   0.00290   0.0925   0.2817   0.7728
   9.000   0.2864   0.00803   0.00303   0.0919   0.2440   0.7716
   9.500   0.3430   0.00840   0.00323   0.0913   0.2030   0.7706
  10.000   0.3993   0.00883   0.00349   0.0906   0.1631   0.7695
  10.500   0.4551   0.00935   0.00385   0.0900   0.1257   0.7686
  11.000   0.5106   0.00990   0.00426   0.0894   0.0960   0.7676
  11.500   0.5659   0.01048   0.00475   0.0888   0.0736   0.7668
  12.000   0.6209   0.01106   0.00527   0.0883   0.0586   0.7660
  12.500   0.6754   0.01171   0.00587   0.0877   0.0468   0.7653
  13.000   0.7295   0.01238   0.00653   0.0872   0.0389   0.7647
  13.500   0.7830   0.01293   0.00709   0.0866   0.0338   0.7644
  14.000   0.8360   0.01352   0.00770   0.0861   0.0298   0.7641
  14.500   0.8879   0.01423   0.00845   0.0856   0.0265   0.7637
  15.000   0.9389   0.01503   0.00927   0.0850   0.0238   0.7634
