  
       XFOIL         Version 6.99
  
 Calculated polar for: NACA 2412                                       
  
 1 1 Reynolds number fixed          Mach number fixed         
  
 xtrf =   1.000 (top)        1.000 (bottom)  
 Mach =   0.000     Re =     1.521 e 6     Ncrit =   9.000
  
   alpha    CL        CD       CDp       CM     Top_Xtr  Bot_Xtr
  ------ -------- --------- --------- -------- -------- --------
 -15.000  -1.5548   0.05180   0.04835  -0.0126   0.9972   0.0102
 -14.500  -1.5728   0.04575   0.04157  -0.0106   0.7473   0.0104
 -14.000  -1.5772   0.04100   0.03657  -0.0077   0.7383   0.0105
 -13.500  -1.5721   0.03740   0.03276  -0.0044   0.7338   0.0107
 -13.000  -1.5660   0.03409   0.02922  -0.0004   0.7301   0.0108
 -12.500  -1.5688   0.03026   0.02516   0.0050   0.7269   0.0113
 -12.000  -1.5525   0.02795   0.02269   0.0093   0.7238   0.0117
 -11.500  -1.5293   0.02615   0.02076   0.0133   0.7210   0.0121
 -11.000  -1.5023   0.02463   0.01909   0.0171   0.7178   0.0125
 -10.500  -1.4724   0.02328   0.01760   0.0207   0.7147   0.0129
 -10.000  -1.4390   0.02212   0.01631   0.0241   0.7116   0.0133
  -9.500  -1.4074   0.02077   0.01479   0.0279   0.7083   0.0138
  -9.000  -1.3749   0.01954   0.01347   0.0318   0.7051   0.0146
  -8.500  -1.3337   0.01867   0.01253   0.0343   0.7016   0.0154
  -8.000  -1.2896   0.01789   0.01168   0.0364   0.6983   0.0162
  -7.500  -1.2459   0.01693   0.01062   0.0386   0.6944   0.0170
  -7.000  -1.2006   0.01605   0.00968   0.0405   0.6913   0.0183
  -6.500  -1.1527   0.01535   0.00895   0.0421   0.6870   0.0195
  -6.000  -1.1048   0.01457   0.00810   0.0437   0.6833   0.0209
  -5.500  -1.0556   0.01391   0.00743   0.0451   0.6800   0.0229
  -5.000  -1.0055   0.01328   0.00677   0.0463   0.6750   0.0248
  -4.500  -0.9552   0.01265   0.00614   0.0476   0.6704   0.0276
  -4.000  -0.9043   0.01208   0.00556   0.0487   0.6650   0.0309
  -3.500  -0.8525   0.01159   0.00507   0.0497   0.6586   0.0345
  -3.000  -0.8008   0.01109   0.00458   0.0507   0.6517   0.0398
  -2.500  -0.7487   0.01061   0.00413   0.0517   0.6434   0.0470
  -2.000  -0.6964   0.01017   0.00372   0.0526   0.6347   0.0562
  -1.500  -0.6442   0.00972   0.00333   0.0535   0.6242   0.0711
  -1.000  -0.5916   0.00932   0.00300   0.0544   0.6132   0.0888
  -0.500  -0.5393   0.00891   0.00269   0.0552   0.6011   0.1154
  -0.000  -0.4870   0.00852   0.00240   0.0561   0.5875   0.1497
   0.500  -0.4350   0.00812   0.00215   0.0570   0.5731   0.1956
   1.000  -0.3833   0.00769   0.00192   0.0579   0.5584   0.2540
   1.500  -0.3320   0.00724   0.00171   0.0589   0.5431   0.3306
   2.000  -0.2846   0.00648   0.00143   0.0604   0.5279   0.4762
   2.500  -0.2415   0.00538   0.00115   0.0629   0.5130   0.7440
   3.000  -0.1837   0.00550   0.00122   0.0628   0.4970   0.7573
   3.500  -0.1255   0.00569   0.00132   0.0626   0.4808   0.7645
   4.000  -0.0676   0.00575   0.00136   0.0624   0.4649   0.7716
   4.500  -0.0095   0.00593   0.00150   0.0621   0.4482   0.7776
   5.000   0.0487   0.00614   0.00164   0.0618   0.4306   0.7808
   5.500   0.1068   0.00622   0.00166   0.0614   0.4114   0.7834
   6.000   0.1645   0.00635   0.00175   0.0611   0.3878   0.7876
   6.500   0.2221   0.00657   0.00192   0.0608   0.3615   0.7910
   7.000   0.2799   0.00677   0.00200   0.0603   0.3302   0.7899
   7.500   0.3374   0.00703   0.00213   0.0597   0.2947   0.7887
   8.000   0.3942   0.00737   0.00232   0.0592   0.2551   0.7875
   8.500   0.4507   0.00778   0.00256   0.0588   0.2134   0.7864
   9.000   0.5065   0.00828   0.00289   0.0583   0.1710   0.7852
   9.500   0.5615   0.00887   0.00329   0.0580   0.1301   0.7840
  10.000   0.6164   0.00945   0.00373   0.0576   0.0995   0.7829
  10.500   0.6708   0.01006   0.00422   0.0573   0.0755   0.7817
  11.000   0.7249   0.01064   0.00473   0.0570   0.0593   0.7811
  11.500   0.7785   0.01121   0.00526   0.0568   0.0475   0.7807
  12.000   0.8319   0.01179   0.00582   0.0565   0.0397   0.7803
  12.500   0.8844   0.01243   0.00645   0.0563   0.0338   0.7799
  13.000   0.9362   0.01311   0.00714   0.0562   0.0294   0.7794
  13.500   0.9879   0.01377   0.00784   0.0560   0.0265   0.7789
  14.000   1.0375   0.01462   0.00872   0.0560   0.0236   0.7785
  14.500   1.0868   0.01541   0.00957   0.0560   0.0217   0.7780
  15.000   1.1332   0.01648   0.01070   0.0561   0.0197   0.7775
  15.500   1.1800   0.01739   0.01167   0.0562   0.0184   0.7771
  16.000   1.2216   0.01874   0.01308   0.0566   0.0169   0.7767
  16.500   1.2615   0.02011   0.01457   0.0570   0.0161   0.7763
  17.000   1.2985   0.02160   0.01617   0.0574   0.0153   0.7759
  17.500   1.3235   0.02378   0.01846   0.0581   0.0146   0.7756
  18.000   1.3372   0.02889   0.02374   0.0537   0.0139   0.7753
  18.500   1.3367   0.03472   0.02974   0.0511   0.0134   0.7750
  19.000   1.3430   0.03970   0.03487   0.0492   0.0131   0.7747
  19.500   1.3411   0.04570   0.04102   0.0469   0.0128   0.7744
  20.000   1.3326   0.05263   0.04811   0.0442   0.0125   0.7742
  20.500   1.3178   0.06081   0.05645   0.0407   0.0123   0.7739
  21.000   1.2982   0.07007   0.06588   0.0366   0.0121   0.7737
  21.500   1.2713   0.08082   0.07681   0.0317   0.0119   0.7734
  22.000   1.2399   0.09260   0.08877   0.0263   0.0117   0.7732
  22.500   1.2027   0.10577   0.10214   0.0200   0.0116   0.7730
  23.000   1.1651   0.11947   0.11602   0.0133   0.0115   0.7728
  23.500   1.1297   0.13339   0.13011   0.0061   0.0114   0.7727
  24.000   1.0989   0.14697   0.14382  -0.0012   0.0112   0.7725
  24.500   1.0733   0.16008   0.15706  -0.0088   0.0109   0.7724
  25.000   1.0570   0.17177   0.16889  -0.0159   0.0107   0.7722
