  
       XFOIL         Version 6.99
  
 Calculated polar for: NACA 2412                                       
  
 1 1 Reynolds number fixed          Mach number fixed         
  
 xtrf =   1.000 (top)        1.000 (bottom)  
 Mach =   0.000     Re =     1.521 e 6     Ncrit =   9.000
  
   alpha    CL        CD       CDp       CM     Top_Xtr  Bot_Xtr
  ------ -------- --------- --------- -------- -------- --------
 -15.000  -1.4166   0.03404   0.03023  -0.0433   0.9999   0.0111
 -14.500  -1.4316   0.02896   0.02488  -0.0398   0.9999   0.0115
 -14.000  -1.4224   0.02625   0.02201  -0.0357   0.9999   0.0119
 -13.500  -1.4034   0.02439   0.02002  -0.0315   0.9999   0.0122
 -13.000  -1.3768   0.02286   0.01837  -0.0278   0.9999   0.0126
 -12.500  -1.3427   0.02147   0.01685  -0.0252   0.9999   0.0130
 -12.000  -1.3046   0.02023   0.01550  -0.0229   0.9999   0.0134
 -11.500  -1.2642   0.01909   0.01424  -0.0208   0.9999   0.0138
 -11.000  -1.2277   0.01746   0.01249  -0.0181   0.9999   0.0147
 -10.500  -1.1839   0.01650   0.01146  -0.0163   0.9999   0.0154
 -10.000  -1.1386   0.01570   0.01059  -0.0146   0.9999   0.0162
  -9.500  -1.0935   0.01493   0.00974  -0.0127   0.9999   0.0169
  -9.000  -1.0517   0.01389   0.00865  -0.0103   0.9999   0.0182
  -8.500  -1.0069   0.01324   0.00795  -0.0082   0.9999   0.0193
  -8.000  -0.9565   0.01261   0.00728  -0.0072   0.9991   0.0203
  -7.500  -0.8888   0.01175   0.00640  -0.0101   0.9942   0.0227
  -7.000  -0.8230   0.01110   0.00572  -0.0123   0.9806   0.0247
  -6.500  -0.7646   0.01054   0.00507  -0.0128   0.9208   0.0275
  -6.000  -0.7194   0.01056   0.00451  -0.0103   0.7502   0.0304
  -5.500  -0.6656   0.01024   0.00410  -0.0098   0.7330   0.0336
  -5.000  -0.6118   0.00982   0.00365  -0.0093   0.7230   0.0389
  -4.500  -0.5576   0.00948   0.00329  -0.0089   0.7141   0.0456
  -4.000  -0.5027   0.00913   0.00296  -0.0086   0.7069   0.0540
  -3.500  -0.4477   0.00877   0.00265  -0.0083   0.6994   0.0672
  -3.000  -0.3924   0.00842   0.00236  -0.0081   0.6907   0.0840
  -2.500  -0.3367   0.00803   0.00209  -0.0080   0.6808   0.1076
  -2.000  -0.2811   0.00768   0.00185  -0.0078   0.6691   0.1380
  -1.500  -0.2255   0.00735   0.00163  -0.0077   0.6549   0.1774
  -1.000  -0.1700   0.00703   0.00145  -0.0075   0.6379   0.2251
  -0.500  -0.1147   0.00674   0.00130  -0.0073   0.6188   0.2836
  -0.000  -0.0596   0.00645   0.00118  -0.0071   0.5977   0.3548
   0.500  -0.0059   0.00600   0.00107  -0.0068   0.5766   0.4740
   1.000   0.0433   0.00512   0.00094  -0.0056   0.5547   0.7175
   1.500   0.0992   0.00511   0.00099  -0.0053   0.5320   0.7799
   2.000   0.1564   0.00520   0.00103  -0.0054   0.5104   0.8006
   2.500   0.2136   0.00528   0.00109  -0.0054   0.4891   0.8161
   3.000   0.2707   0.00539   0.00116  -0.0055   0.4676   0.8280
   3.500   0.3280   0.00555   0.00124  -0.0057   0.4455   0.8380
   4.000   0.3849   0.00567   0.00134  -0.0058   0.4225   0.8482
   4.500   0.4413   0.00586   0.00146  -0.0058   0.3953   0.8600
   5.000   0.4968   0.00608   0.00162  -0.0057   0.3630   0.8752
   5.500   0.5522   0.00637   0.00182  -0.0056   0.3256   0.8872
   6.000   0.6068   0.00674   0.00206  -0.0054   0.2833   0.8953
   7.000   0.7132   0.00773   0.00273  -0.0048   0.1900   0.9182
   7.500   0.7641   0.00832   0.00316  -0.0041   0.1455   0.9350
   8.000   0.8140   0.00892   0.00363  -0.0031   0.1097   0.9553
   8.500   0.8663   0.00956   0.00416  -0.0027   0.0821   0.9746
   9.000   0.9253   0.01021   0.00471  -0.0040   0.0627   0.9872
   9.500   0.9866   0.01090   0.00533  -0.0058   0.0488   0.9952
  10.000   1.0499   0.01160   0.00598  -0.0082   0.0398   0.9994
  10.500   1.0953   0.01224   0.00660  -0.0066   0.0340   1.0001
  11.000   1.1397   0.01293   0.00729  -0.0049   0.0297   1.0001
  11.500   1.1845   0.01375   0.00809  -0.0035   0.0259   1.0001
  12.000   1.2310   0.01443   0.00882  -0.0024   0.0237   1.0001
  12.500   1.2743   0.01538   0.00979  -0.0009   0.0213   1.0001
  13.000   1.3182   0.01621   0.01068   0.0004   0.0198   1.0001
  13.500   1.3558   0.01746   0.01197   0.0025   0.0179   1.0001
  14.000   1.3960   0.01838   0.01297   0.0041   0.0171   1.0001
  14.500   1.4294   0.01953   0.01418   0.0067   0.0160   1.0001
  15.000   1.4489   0.02128   0.01602   0.0109   0.0149   1.0001
  15.500   1.4716   0.02307   0.01794   0.0138   0.0144   1.0001
  16.000   1.4926   0.02530   0.02029   0.0157   0.0139   1.0001
  16.500   1.5100   0.02834   0.02346   0.0165   0.0133   1.0001
  17.000   1.5225   0.03251   0.02775   0.0160   0.0128   1.0001
  17.500   1.5215   0.03816   0.03357   0.0153   0.0122   1.0001
  18.000   1.5118   0.04501   0.04062   0.0140   0.0119   1.0001
  18.500   1.5090   0.05127   0.04705   0.0125   0.0117   1.0001
  19.000   1.4978   0.05881   0.05478   0.0103   0.0115   1.0001
  19.500   1.4801   0.06772   0.06389   0.0072   0.0113   1.0001
  20.000   1.4560   0.07795   0.07432   0.0033   0.0111   1.0001
  20.500   1.4257   0.08948   0.08606  -0.0014   0.0110   1.0001
  21.000   1.3902   0.10233   0.09912  -0.0070   0.0108   1.0001
  21.500   1.3518   0.11602   0.11302  -0.0133   0.0107   1.0001
  22.000   1.3129   0.13035   0.12756  -0.0204   0.0106   1.0001
  22.500   1.2782   0.14452   0.14192  -0.0280   0.0105   1.0001
  23.000   1.2474   0.15848   0.15605  -0.0361   0.0104   1.0001
  23.500   1.2226   0.17185   0.16957  -0.0443   0.0102   1.0001
  24.000   1.2024   0.18478   0.18262  -0.0528   0.0100   1.0001
  24.500   1.1877   0.19670   0.19465  -0.0609   0.0097   1.0001
  25.000   1.1746   0.20886   0.20694  -0.0695   0.0095   1.0001
