  
       XFOIL         Version 6.99
  
 Calculated polar for: NACA 0012                                       
  
 1 1 Reynolds number fixed          Mach number fixed         
  
 xtrf =   1.000 (top)        1.000 (bottom)  
 Mach =   0.000     Re =     1.521 e 6     Ncrit =   9.000
  
   alpha    CL        CD       CDp       CM     Top_Xtr  Bot_Xtr
  ------ -------- --------- --------- -------- -------- --------
 -12.000  -1.5400   0.02303   0.01766   0.0257   0.9999   0.0137
 -11.500  -1.5147   0.02137   0.01591   0.0296   0.9999   0.0145
 -11.000  -1.4835   0.02013   0.01460   0.0331   0.9999   0.0152
 -10.500  -1.4495   0.01907   0.01345   0.0363   0.9999   0.0159
 -10.000  -1.4162   0.01794   0.01224   0.0398   0.9999   0.0168
  -9.500  -1.3810   0.01692   0.01118   0.0432   0.9999   0.0181
  -9.000  -1.3398   0.01615   0.01036   0.0457   0.9999   0.0193
  -8.500  -1.2978   0.01523   0.00939   0.0480   0.9999   0.0209
  -8.000  -1.2530   0.01448   0.00863   0.0499   0.9999   0.0228
  -7.500  -1.2072   0.01373   0.00786   0.0516   0.9999   0.0250
  -7.000  -1.1546   0.01310   0.00720   0.0520   0.9513   0.0278
  -6.500  -1.1131   0.01296   0.00650   0.0550   0.7395   0.0314
  -6.000  -1.0640   0.01243   0.00592   0.0562   0.7285   0.0358
  -5.500  -1.0143   0.01192   0.00539   0.0574   0.7206   0.0420
  -5.000  -0.9641   0.01142   0.00490   0.0584   0.7140   0.0501
  -4.500  -0.9134   0.01094   0.00446   0.0595   0.7076   0.0618
  -4.000  -0.8625   0.01048   0.00405   0.0604   0.7016   0.0783
  -3.500  -0.8110   0.00996   0.00365   0.0613   0.6951   0.1008
  -3.000  -0.7600   0.00940   0.00326   0.0623   0.6886   0.1339
  -2.500  -0.7085   0.00882   0.00287   0.0632   0.6811   0.1757
  -2.000  -0.6572   0.00824   0.00253   0.0641   0.6726   0.2268
  -1.500  -0.6055   0.00770   0.00221   0.0650   0.6625   0.2843
  -1.000  -0.5539   0.00718   0.00192   0.0659   0.6494   0.3482
  -0.500  -0.5020   0.00669   0.00167   0.0668   0.6339   0.4169
  -0.000  -0.4504   0.00621   0.00144   0.0677   0.6157   0.4935
