  
       XFOIL         Version 6.99
  
 Calculated polar for: NACA 2412                                       
  
 1 1 Reynolds number fixed          Mach number fixed         
  
 xtrf =   1.000 (top)        1.000 (bottom)  
 Mach =   0.000     Re =     2.332 e 6     Ncrit =   9.000
  
   alpha    CL        CD       CDp       CM     Top_Xtr  Bot_Xtr
  ------ -------- --------- --------- -------- -------- --------
 -15.000  -0.9804   0.01628   0.01171  -0.1132   0.8133   0.0126
 -14.500  -0.9333   0.01484   0.01012  -0.1132   0.8102   0.0135
 -14.000  -0.8819   0.01395   0.00917  -0.1135   0.8086   0.0142
 -13.500  -0.8290   0.01322   0.00837  -0.1137   0.8078   0.0149
 -13.000  -0.7752   0.01259   0.00768  -0.1140   0.8071   0.0154
 -12.500  -0.7222   0.01173   0.00674  -0.1143   0.8063   0.0166
 -12.000  -0.6675   0.01115   0.00613  -0.1146   0.8057   0.0179
 -11.500  -0.6119   0.01068   0.00562  -0.1150   0.8050   0.0187
 -11.000  -0.5568   0.01003   0.00494  -0.1153   0.8045   0.0206
 -10.500  -0.5005   0.00960   0.00448  -0.1158   0.8040   0.0221
 -10.000  -0.4442   0.00912   0.00398  -0.1162   0.8036   0.0245
  -9.500  -0.3872   0.00877   0.00362  -0.1166   0.8032   0.0264
  -9.000  -0.3303   0.00834   0.00320  -0.1171   0.8029   0.0301
  -8.500  -0.2730   0.00799   0.00286  -0.1175   0.8018   0.0342
  -8.000  -0.2159   0.00768   0.00253  -0.1179   0.7978   0.0392
  -7.500  -0.1584   0.00740   0.00226  -0.1183   0.7945   0.0458
  -7.000  -0.1007   0.00713   0.00203  -0.1188   0.7923   0.0549
  -6.500  -0.0427   0.00684   0.00180  -0.1193   0.7914   0.0665
  -6.000   0.0155   0.00658   0.00161  -0.1198   0.7902   0.0811
  -5.500   0.0736   0.00630   0.00143  -0.1203   0.7884   0.1024
  -5.000   0.1318   0.00605   0.00128  -0.1208   0.7864   0.1280
  -4.500   0.1900   0.00582   0.00115  -0.1212   0.7836   0.1588
  -4.000   0.2481   0.00562   0.00105  -0.1217   0.7799   0.1949
  -3.500   0.3063   0.00545   0.00100  -0.1221   0.7756   0.2344
  -3.000   0.3647   0.00523   0.00093  -0.1226   0.7719   0.2785
  -2.500   0.4228   0.00504   0.00088  -0.1230   0.7657   0.3260
  -2.000   0.4806   0.00489   0.00085  -0.1233   0.7577   0.3778
  -1.500   0.5380   0.00472   0.00083  -0.1235   0.7436   0.4415
  -1.000   0.5857   0.00521   0.00102  -0.1218   0.6184   0.5027
  -0.500   0.6369   0.00557   0.00125  -0.1209   0.5532   0.5526
  -0.000   0.6896   0.00587   0.00144  -0.1202   0.5071   0.5895
   0.500   0.7426   0.00615   0.00164  -0.1195   0.4673   0.6180
   1.000   0.7954   0.00646   0.00186  -0.1188   0.4312   0.6402
   1.500   0.8475   0.00683   0.00209  -0.1180   0.3936   0.6567
   2.000   0.8985   0.00725   0.00237  -0.1170   0.3502   0.6687
   2.500   0.9477   0.00780   0.00270  -0.1157   0.3012   0.6779
   3.000   0.9953   0.00845   0.00310  -0.1140   0.2482   0.6856
   3.500   1.0422   0.00912   0.00354  -0.1123   0.1971   0.6916
   4.000   1.0883   0.00986   0.00403  -0.1105   0.1495   0.6979
   4.500   1.1338   0.01054   0.00452  -0.1086   0.1101   0.7050
   5.000   1.1798   0.01117   0.00503  -0.1068   0.0830   0.7107
   5.500   1.2253   0.01180   0.00557  -0.1050   0.0632   0.7158
   6.000   1.2704   0.01242   0.00612  -0.1030   0.0501   0.7214
   6.500   1.3126   0.01302   0.00670  -0.1005   0.0407   0.7294
   7.000   1.3534   0.01359   0.00733  -0.0978   0.0342   0.7587
   7.500   1.3920   0.01387   0.00804  -0.0947   0.0295   0.9999
   8.000   1.4321   0.01459   0.00877  -0.0920   0.0260   0.9999
   8.500   1.4706   0.01541   0.00959  -0.0892   0.0230   0.9999
   9.000   1.5077   0.01630   0.01048  -0.0862   0.0204   0.9999
   9.500   1.5443   0.01722   0.01143  -0.0833   0.0188   0.9999
  10.000   1.5788   0.01828   0.01251  -0.0802   0.0172   0.9999
  10.500   1.6114   0.01946   0.01373  -0.0769   0.0158   0.9999
  11.000   1.6439   0.02064   0.01496  -0.0738   0.0149   0.9999
  11.500   1.6718   0.02214   0.01650  -0.0702   0.0136   0.9999
  12.000   1.6992   0.02370   0.01813  -0.0668   0.0129   0.9999
  12.500   1.7260   0.02532   0.01983  -0.0635   0.0124   0.9999
  13.000   1.7493   0.02722   0.02179  -0.0600   0.0117   0.9999
  13.500   1.7674   0.02955   0.02420  -0.0562   0.0110   0.9999
  14.000   1.7830   0.03214   0.02690  -0.0524   0.0105   0.9999
  14.500   1.8002   0.03467   0.02954  -0.0492   0.0102   0.9999
  15.000   1.8142   0.03762   0.03260  -0.0460   0.0099   0.9999
  15.500   1.8242   0.04106   0.03614  -0.0430   0.0095   0.9999
  16.000   1.8302   0.04513   0.04032  -0.0403   0.0091   0.9999
  16.500   1.8285   0.05032   0.04566  -0.0381   0.0087   0.9999
  17.000   1.8157   0.05748   0.05302  -0.0370   0.0083   0.9999
  17.500   1.8124   0.06395   0.05966  -0.0370   0.0082   0.9999
  18.000   1.8019   0.07165   0.06753  -0.0378   0.0081   0.9999
  18.500   1.7853   0.08048   0.07655  -0.0394   0.0080   0.9999
  19.000   1.7607   0.09063   0.08691  -0.0420   0.0079   0.9999
  19.500   1.7302   0.10204   0.09853  -0.0457   0.0078   0.9999
  20.000   1.6946   0.11451   0.11123  -0.0505   0.0078   0.9999
  20.500   1.6580   0.12766   0.12460  -0.0565   0.0077   0.9999
  21.000   1.6182   0.14181   0.13897  -0.0639   0.0076   0.9999
  21.500   1.5771   0.15689   0.15427  -0.0729   0.0075   0.9999
  22.000   1.5382   0.17215   0.16975  -0.0829   0.0075   0.9999
  22.500   1.4972   0.18868   0.18651  -0.0947   0.0074   0.9999
  23.000   1.4616   0.20499   0.20301  -0.1070   0.0073   0.9999
  23.500   1.4339   0.22020   0.21840  -0.1189   0.0072   0.9999
  24.000   1.4115   0.23469   0.23302  -0.1306   0.0071   0.9999
  24.500   1.3965   0.24759   0.24603  -0.1412   0.0068   0.9999
  25.000   1.3858   0.25974   0.25828  -0.1514   0.0065   0.9999
