  
       XFOIL         Version 6.99
  
 Calculated polar for: NACA 2412                                       
  
 1 1 Reynolds number fixed          Mach number fixed         
  
 xtrf =   1.000 (top)        1.000 (bottom)  
 Mach =   0.000     Re =     2.332 e 6     Ncrit =   9.000
  
   alpha    CL        CD       CDp       CM     Top_Xtr  Bot_Xtr
  ------ -------- --------- --------- -------- -------- --------
 -15.000  -0.0858   0.01373   0.00925  -0.2432   0.7496   0.0224
 -14.500  -0.0303   0.01362   0.00913  -0.2443   0.7510   0.0240
 -14.000   0.0218   0.01386   0.00943  -0.2448   0.7532   0.0264
 -13.500   0.0743   0.01407   0.00964  -0.2451   0.7546   0.0287
 -13.000   0.1275   0.01422   0.00982  -0.2455   0.7558   0.0319
 -12.500   0.1801   0.01443   0.01005  -0.2457   0.7568   0.0360
 -12.000   0.1345   0.02336   0.01925  -0.2298   0.7752   0.0366
 -11.500   0.1821   0.02392   0.01981  -0.2291   0.7753   0.0412
 -11.000   0.2292   0.02452   0.02043  -0.2282   0.7753   0.0473
 -10.500   0.2757   0.02516   0.02110  -0.2272   0.7753   0.0553
 -10.000   0.3214   0.02585   0.02182  -0.2260   0.7754   0.0650
  -9.500   0.3655   0.02652   0.02254  -0.2245   0.7754   0.0775
  -9.000   0.3938   0.02749   0.02356  -0.2201   0.7753   0.0900
  -8.500   0.4197   0.02928   0.02541  -0.2160   0.7753   0.1051
  -8.000   0.4599   0.03031   0.02650  -0.2140   0.7752   0.1246
  -7.500   0.5043   0.03104   0.02729  -0.2126   0.7752   0.1471
  -7.000   0.5496   0.03163   0.02797  -0.2113   0.7751   0.1751
  -6.500   0.5951   0.03211   0.02854  -0.2100   0.7750   0.2040
  -6.000   0.6091   0.03175   0.02823  -0.2041   0.7705   0.2261
  -5.500   1.0078   0.01057   0.00685  -0.2588   0.7447   0.3443
  -5.000   1.0745   0.00957   0.00589  -0.2609   0.7434   0.3783
  -4.500   1.1412   0.00878   0.00514  -0.2630   0.7452   0.4133
  -4.000   1.2053   0.00788   0.00429  -0.2645   0.7443   0.4483
  -3.500   1.2665   0.00692   0.00335  -0.2653   0.7384   0.4799
  -3.000   1.3228   0.00641   0.00287  -0.2651   0.7318   0.5038
  -2.500   1.2772   0.00897   0.00485  -0.2442   0.5644   0.5146
  -2.000   1.2263   0.01440   0.01012  -0.2260   0.4968   0.5241
  -1.500   1.1998   0.01993   0.01553  -0.2136   0.4492   0.5346
  -1.000   1.2083   0.02252   0.01799  -0.2061   0.4110   0.5480
  -0.500   1.2270   0.02436   0.01963  -0.2001   0.3647   0.5597
  -0.000   1.2523   0.02577   0.02079  -0.1950   0.3106   0.5705
   0.500   1.2821   0.02689   0.02166  -0.1906   0.2558   0.5807
   1.000   1.3137   0.02786   0.02234  -0.1865   0.2013   0.5892
   1.500   1.3474   0.02875   0.02297  -0.1827   0.1501   0.5981
   2.000   1.3833   0.02957   0.02356  -0.1792   0.1110   0.6055
   2.500   1.4200   0.03037   0.02420  -0.1759   0.0811   0.6124
   3.000   1.4580   0.03119   0.02490  -0.1729   0.0621   0.6190
   3.500   1.4959   0.03204   0.02566  -0.1699   0.0483   0.6242
   4.000   1.5339   0.03290   0.02648  -0.1669   0.0398   0.6298
   4.500   1.5711   0.03382   0.02738  -0.1639   0.0333   0.6352
   5.000   1.6077   0.03480   0.02833  -0.1609   0.0280   0.6396
   5.500   1.6438   0.03583   0.02935  -0.1578   0.0243   0.6431
   6.000   1.6794   0.03689   0.03043  -0.1547   0.0218   0.6465
   6.500   1.7129   0.03807   0.03163  -0.1513   0.0192   0.6495
   7.000   1.7465   0.03929   0.03287  -0.1481   0.0176   0.6527
   7.500   1.7763   0.04078   0.03439  -0.1444   0.0157   0.6554
   8.000   1.8062   0.04230   0.03596  -0.1408   0.0148   0.6577
   8.500   1.8335   0.04397   0.03767  -0.1370   0.0135   0.6596
   9.000   1.8598   0.04574   0.03951  -0.1331   0.0126   0.6616
   9.500   1.8865   0.04750   0.04134  -0.1293   0.0119   0.6637
  10.000   1.9076   0.04976   0.04366  -0.1251   0.0113   0.6663
  10.500   1.9260   0.05223   0.04621  -0.1207   0.0104   0.6682
  11.000   1.9449   0.05470   0.04878  -0.1165   0.0100   0.6692
  11.500   1.9607   0.05752   0.05171  -0.1122   0.0097   0.6703
  12.000   1.9761   0.06040   0.05469  -0.1081   0.0093   0.6716
  12.500   1.9857   0.06390   0.05830  -0.1038   0.0089   0.6730
  13.000   1.9932   0.06769   0.06219  -0.0996   0.0084   0.6745
  13.500   1.9892   0.07290   0.06756  -0.0951   0.0079   0.6761
  14.000   1.9891   0.07797   0.07278  -0.0917   0.0077   0.6779
  14.500   1.9867   0.08359   0.07856  -0.0889   0.0076   0.6786
  15.000   1.9812   0.08992   0.08505  -0.0870   0.0075   0.6793
  15.500   1.9712   0.09711   0.09242  -0.0859   0.0073   0.6800
  16.000   1.9579   0.10499   0.10049  -0.0859   0.0071   0.6808
  16.500   1.9413   0.11343   0.10911  -0.0869   0.0070   0.6817
  17.000   1.9210   0.12267   0.11855  -0.0891   0.0068   0.6827
  17.500   1.8994   0.13239   0.12845  -0.0925   0.0067   0.6837
  18.000   1.8759   0.14265   0.13891  -0.0971   0.0065   0.6847
  18.500   1.8478   0.15401   0.15048  -0.1034   0.0064   0.6854
  19.000   1.8187   0.16599   0.16267  -0.1110   0.0063   0.6861
  19.500   1.7836   0.17971   0.17663  -0.1210   0.0062   0.6864
  20.000   1.7466   0.19444   0.19159  -0.1327   0.0060   0.6866
  20.500   1.7072   0.21033   0.20773  -0.1463   0.0060   0.6868
  21.000   1.6661   0.22757   0.22520  -0.1617   0.0059   0.6869
  21.500   1.6439   0.24082   0.23863  -0.1737   0.0058   0.6872
  22.000   1.6224   0.25449   0.25247  -0.1865   0.0058   0.6875
  22.500   1.6073   0.26675   0.26487  -0.1981   0.0057   0.6879
  23.000   1.5955   0.27841   0.27666  -0.2092   0.0056   0.6884
  23.500   1.5857   0.28984   0.28821  -0.2202   0.0054   0.6890
  24.000   1.5778   0.30098   0.29946  -0.2310   0.0052   0.6895
  24.500   1.5709   0.31221   0.31078  -0.2420   0.0050   0.6902
  25.000   1.5645   0.32381   0.32247  -0.2532   0.0047   0.6907
