  
       XFOIL         Version 6.99
  
 Calculated polar for: NACA 2412                                       
  
 1 1 Reynolds number fixed          Mach number fixed         
  
 xtrf =   1.000 (top)        1.000 (bottom)  
 Mach =   0.000     Re =     2.332 e 6     Ncrit =   9.000
  
   alpha    CL        CD       CDp       CM     Top_Xtr  Bot_Xtr
  ------ -------- --------- --------- -------- -------- --------
 -15.000  -1.6870   0.03946   0.03504  -0.0092   0.7183   0.0085
 -14.500  -1.6984   0.03469   0.03003  -0.0046   0.7166   0.0087
 -14.000  -1.6940   0.03140   0.02656  -0.0001   0.7150   0.0091
 -13.500  -1.6802   0.02894   0.02396   0.0042   0.7131   0.0094
 -13.000  -1.6603   0.02697   0.02187   0.0082   0.7113   0.0096
 -12.500  -1.6360   0.02535   0.02013   0.0120   0.7089   0.0099
 -12.000  -1.6085   0.02393   0.01861   0.0158   0.7069   0.0103
 -11.500  -1.5786   0.02266   0.01724   0.0194   0.7048   0.0105
 -11.000  -1.5458   0.02155   0.01603   0.0228   0.7024   0.0107
 -10.500  -1.5151   0.02018   0.01452   0.0267   0.7003   0.0112
 -10.000  -1.4810   0.01898   0.01325   0.0303   0.6980   0.0118
  -9.500  -1.4443   0.01811   0.01232   0.0337   0.6953   0.0124
  -9.000  -1.4015   0.01731   0.01145   0.0360   0.6930   0.0129
  -8.500  -1.3567   0.01659   0.01067   0.0380   0.6906   0.0133
  -8.000  -1.3123   0.01566   0.00968   0.0401   0.6873   0.0142
  -7.500  -1.2656   0.01491   0.00892   0.0419   0.6840   0.0153
  -7.000  -1.2174   0.01430   0.00825   0.0434   0.6808   0.0162
  -6.500  -1.1687   0.01363   0.00755   0.0449   0.6773   0.0172
  -6.000  -1.1194   0.01298   0.00689   0.0463   0.6732   0.0188
  -5.500  -1.0686   0.01248   0.00636   0.0474   0.6685   0.0199
  -5.000  -1.0182   0.01188   0.00577   0.0486   0.6639   0.0223
  -4.500  -0.9663   0.01144   0.00530   0.0496   0.6577   0.0240
  -4.000  -0.9149   0.01091   0.00479   0.0507   0.6515   0.0274
  -3.500  -0.8627   0.01047   0.00435   0.0516   0.6439   0.0310
  -3.000  -0.8100   0.01008   0.00396   0.0525   0.6357   0.0351
  -2.500  -0.7572   0.00969   0.00359   0.0533   0.6261   0.0406
  -2.000  -0.7042   0.00930   0.00324   0.0541   0.6161   0.0492
  -1.500  -0.6512   0.00894   0.00291   0.0549   0.6041   0.0604
  -1.000  -0.5979   0.00860   0.00262   0.0556   0.5916   0.0750
  -0.500  -0.5447   0.00825   0.00235   0.0563   0.5784   0.0958
  -0.000  -0.4913   0.00793   0.00211   0.0570   0.5641   0.1225
   0.500  -0.4382   0.00760   0.00189   0.0577   0.5490   0.1579
   1.000  -0.3851   0.00727   0.00169   0.0584   0.5334   0.2028
   1.500  -0.3321   0.00694   0.00152   0.0590   0.5175   0.2590
   2.000  -0.2794   0.00657   0.00136   0.0597   0.5016   0.3321
   2.500  -0.2294   0.00597   0.00116   0.0608   0.4858   0.4630
   3.000  -0.1840   0.00485   0.00086   0.0627   0.4712   0.7352
   3.500  -0.1255   0.00497   0.00093   0.0624   0.4558   0.7466
   4.000  -0.0672   0.00506   0.00098   0.0620   0.4399   0.7531
   4.500  -0.0087   0.00519   0.00106   0.0617   0.4232   0.7581
   5.000   0.0497   0.00538   0.00118   0.0613   0.4036   0.7623
   5.500   0.1082   0.00559   0.00132   0.0609   0.3822   0.7641
   6.000   0.1662   0.00573   0.00138   0.0604   0.3555   0.7665
   6.500   0.2239   0.00591   0.00148   0.0600   0.3260   0.7705
   7.000   0.2813   0.00619   0.00166   0.0596   0.2918   0.7731
   7.500   0.3386   0.00649   0.00181   0.0591   0.2546   0.7721
   8.000   0.3956   0.00683   0.00200   0.0586   0.2152   0.7712
   8.500   0.4520   0.00726   0.00226   0.0582   0.1742   0.7702
   9.000   0.5080   0.00772   0.00256   0.0578   0.1373   0.7691
   9.500   0.5635   0.00824   0.00292   0.0574   0.1042   0.7681
  10.000   0.6189   0.00875   0.00331   0.0570   0.0799   0.7670
  10.500   0.6742   0.00923   0.00371   0.0566   0.0631   0.7661
  11.000   0.7289   0.00976   0.00417   0.0563   0.0499   0.7652
  11.500   0.7833   0.01029   0.00466   0.0560   0.0405   0.7644
  12.000   0.8373   0.01080   0.00514   0.0557   0.0341   0.7641
  12.500   0.8908   0.01133   0.00565   0.0554   0.0295   0.7639
  13.000   0.9440   0.01186   0.00620   0.0552   0.0263   0.7636
  13.500   0.9963   0.01246   0.00682   0.0550   0.0233   0.7633
  14.000   1.0474   0.01316   0.00752   0.0549   0.0207   0.7630
  14.500   1.0983   0.01382   0.00822   0.0547   0.0191   0.7627
  15.000   1.1475   0.01462   0.00904   0.0547   0.0173   0.7624
  15.500   1.1956   0.01546   0.00994   0.0548   0.0161   0.7620
  16.000   1.2428   0.01633   0.01086   0.0549   0.0151   0.7617
  16.500   1.2861   0.01748   0.01206   0.0552   0.0139   0.7614
  17.000   1.3279   0.01868   0.01335   0.0556   0.0132   0.7610
  17.500   1.3677   0.01992   0.01466   0.0560   0.0127   0.7607
  18.000   1.4012   0.02150   0.01633   0.0567   0.0121   0.7604
  18.500   1.4212   0.02468   0.01963   0.0556   0.0114   0.7601
  19.000   1.4275   0.03022   0.02533   0.0519   0.0108   0.7598
  19.500   1.4367   0.03477   0.03000   0.0500   0.0106   0.7595
  20.000   1.4392   0.04003   0.03540   0.0481   0.0105   0.7592
  20.500   1.4337   0.04629   0.04180   0.0459   0.0103   0.7590
  21.000   1.4224   0.05347   0.04914   0.0431   0.0101   0.7587
  21.500   1.4052   0.06189   0.05771   0.0396   0.0099   0.7585
  22.000   1.3829   0.07138   0.06737   0.0354   0.0098   0.7582
  22.500   1.3516   0.08257   0.07874   0.0304   0.0097   0.7580
  23.000   1.3150   0.09495   0.09131   0.0246   0.0096   0.7578
  23.500   1.2692   0.10930   0.10586   0.0177   0.0095   0.7575
  24.000   1.2226   0.12435   0.12110   0.0102   0.0095   0.7573
  24.500   1.1722   0.14091   0.13787   0.0014   0.0094   0.7571
  25.000   1.1302   0.15686   0.15399  -0.0077   0.0093   0.7569
