  
       XFOIL         Version 6.99
  
 Calculated polar for: NACA 2412                                       
  
 1 1 Reynolds number fixed          Mach number fixed         
  
 xtrf =   1.000 (top)        1.000 (bottom)  
 Mach =   0.000     Re =     2.332 e 6     Ncrit =   9.000
  
   alpha    CL        CD       CDp       CM     Top_Xtr  Bot_Xtr
  ------ -------- --------- --------- -------- -------- --------
 -15.000  -1.4571   0.02267   0.01858  -0.0462   1.0000   0.0103
 -14.500  -1.4236   0.02131   0.01712  -0.0437   1.0000   0.0106
 -14.000  -1.3860   0.02012   0.01584  -0.0416   1.0000   0.0109
 -13.500  -1.3458   0.01905   0.01468  -0.0398   1.0000   0.0110
 -13.000  -1.3098   0.01749   0.01298  -0.0373   1.0000   0.0117
 -12.500  -1.2690   0.01640   0.01183  -0.0352   1.0000   0.0122
 -12.000  -1.2275   0.01554   0.01091  -0.0329   1.0000   0.0128
 -11.500  -1.1862   0.01479   0.01010  -0.0305   1.0000   0.0133
 -11.000  -1.1450   0.01414   0.00939  -0.0278   1.0000   0.0136
 -10.500  -1.1068   0.01325   0.00843  -0.0247   1.0000   0.0145
 -10.000  -1.0479   0.01251   0.00767  -0.0257   0.9987   0.0156
  -9.500  -0.9851   0.01189   0.00702  -0.0275   0.9968   0.0165
  -9.000  -0.9206   0.01113   0.00623  -0.0297   0.9948   0.0179
  -8.500  -0.8563   0.01053   0.00562  -0.0317   0.9921   0.0194
  -8.000  -0.7942   0.00996   0.00504  -0.0332   0.9867   0.0209
  -7.500  -0.7352   0.00945   0.00453  -0.0340   0.9783   0.0232
  -7.000  -0.6798   0.00898   0.00405  -0.0338   0.9654   0.0257
  -6.500  -0.6264   0.00861   0.00365  -0.0331   0.9458   0.0281
  -6.000  -0.5743   0.00825   0.00323  -0.0321   0.9112   0.0323
  -5.500  -0.5228   0.00807   0.00285  -0.0309   0.8418   0.0370
  -5.000  -0.4702   0.00800   0.00253  -0.0301   0.7594   0.0431
  -4.500  -0.4151   0.00778   0.00225  -0.0299   0.7312   0.0512
  -4.000  -0.3593   0.00755   0.00201  -0.0298   0.7167   0.0618
  -3.500  -0.3031   0.00728   0.00179  -0.0297   0.7054   0.0771
  -3.000  -0.2467   0.00702   0.00159  -0.0297   0.6937   0.0959
  -2.500  -0.1902   0.00676   0.00141  -0.0297   0.6783   0.1225
  -2.000  -0.1338   0.00653   0.00125  -0.0298   0.6589   0.1543
  -1.500  -0.0776   0.00631   0.00111  -0.0298   0.6364   0.1958
  -1.000  -0.0214   0.00612   0.00101  -0.0298   0.6120   0.2424
  -0.500   0.0347   0.00596   0.00093  -0.0298   0.5862   0.2964
  -0.000   0.0908   0.00579   0.00088  -0.0298   0.5603   0.3612
   0.500   0.1461   0.00553   0.00085  -0.0297   0.5353   0.4614
   1.000   0.2010   0.00524   0.00084  -0.0296   0.5104   0.5846
   1.500   0.2546   0.00486   0.00087  -0.0291   0.4873   0.7490
   2.000   0.3110   0.00488   0.00094  -0.0290   0.4648   0.7944
   2.500   0.3676   0.00498   0.00102  -0.0290   0.4412   0.8214
   3.000   0.4241   0.00507   0.00112  -0.0290   0.4183   0.8462
   3.500   0.4801   0.00524   0.00124  -0.0289   0.3896   0.8693
   4.000   0.5352   0.00544   0.00139  -0.0287   0.3561   0.8927
   4.500   0.5891   0.00570   0.00157  -0.0282   0.3180   0.9190
   5.000   0.6405   0.00604   0.00182  -0.0271   0.2757   0.9492
   5.500   0.6919   0.00647   0.00211  -0.0261   0.2309   0.9767
   6.000   0.7517   0.00702   0.00244  -0.0272   0.1833   0.9896
   6.500   0.8151   0.00765   0.00285  -0.0293   0.1377   0.9949
   7.000   0.8786   0.00831   0.00329  -0.0314   0.1000   0.9975
   7.500   0.9412   0.00892   0.00375  -0.0334   0.0742   1.0000
   8.000   0.9849   0.00945   0.00419  -0.0311   0.0584   1.0000
   8.500   1.0308   0.00996   0.00463  -0.0293   0.0474   1.0000
   9.000   1.0787   0.01049   0.00511  -0.0280   0.0395   1.0000
   9.500   1.1275   0.01106   0.00564  -0.0270   0.0332   1.0000
  10.000   1.1764   0.01165   0.00621  -0.0260   0.0286   1.0000
  10.500   1.2245   0.01230   0.00685  -0.0250   0.0248   1.0000
  11.000   1.2723   0.01295   0.00749  -0.0240   0.0221   1.0000
  11.500   1.3193   0.01363   0.00819  -0.0228   0.0201   1.0000
  12.000   1.3643   0.01442   0.00899  -0.0215   0.0181   1.0000
  12.500   1.4085   0.01520   0.00981  -0.0200   0.0168   1.0000
  13.000   1.4506   0.01604   0.01068  -0.0184   0.0155   1.0000
  13.500   1.4882   0.01710   0.01178  -0.0160   0.0142   1.0000
  14.000   1.5235   0.01801   0.01275  -0.0133   0.0137   1.0000
  14.500   1.5523   0.01914   0.01394  -0.0098   0.0129   1.0000
  15.000   1.5766   0.02063   0.01550  -0.0062   0.0121   1.0000
  15.500   1.5972   0.02253   0.01750  -0.0028   0.0115   1.0000
  16.000   1.6203   0.02445   0.01952  -0.0004   0.0112   1.0000
  16.500   1.6398   0.02689   0.02206   0.0016   0.0108   1.0000
  17.000   1.6552   0.03002   0.02529   0.0029   0.0103   1.0000
  17.500   1.6647   0.03410   0.02949   0.0035   0.0099   1.0000
  18.000   1.6642   0.03944   0.03499   0.0036   0.0095   1.0000
  18.500   1.6561   0.04587   0.04161   0.0031   0.0092   1.0000
  19.000   1.6516   0.05224   0.04814   0.0020   0.0091   1.0000
  19.500   1.6401   0.05979   0.05586   0.0001   0.0090   1.0000
  20.000   1.6225   0.06854   0.06479  -0.0026   0.0089   1.0000
  20.500   1.5978   0.07866   0.07511  -0.0061   0.0088   1.0000
  21.000   1.5656   0.09017   0.08683  -0.0105   0.0087   1.0000
  21.500   1.5265   0.10320   0.10007  -0.0159   0.0086   1.0000
  22.000   1.4816   0.11769   0.11479  -0.0226   0.0085   1.0000
  22.500   1.4336   0.13328   0.13060  -0.0304   0.0085   1.0000
  23.000   1.3886   0.14905   0.14660  -0.0392   0.0084   1.0000
  23.500   1.3416   0.16612   0.16389  -0.0496   0.0084   1.0000
  24.000   1.3044   0.18218   0.18014  -0.0602   0.0083   1.0000
  24.500   1.2747   0.19728   0.19540  -0.0706   0.0082   1.0000
  25.000   1.2534   0.21119   0.20944  -0.0806   0.0080   1.0000
