  
       XFOIL         Version 6.99
  
 Calculated polar for: NACA 2412                                       
  
 1 1 Reynolds number fixed          Mach number fixed         
  
 xtrf =   1.000 (top)        1.000 (bottom)  
 Mach =   0.000     Re =     1.521 e 6     Ncrit =   9.000
  
   alpha    CL        CD       CDp       CM     Top_Xtr  Bot_Xtr
  ------ -------- --------- --------- -------- -------- --------
 -15.000  -1.4745   0.03885   0.03514  -0.0323   0.9999   0.0108
 -14.500  -1.4710   0.03480   0.03090  -0.0303   0.9999   0.0109
 -14.000  -1.4777   0.03041   0.02626  -0.0265   0.9999   0.0112
 -13.500  -1.4746   0.02717   0.02283  -0.0218   0.9999   0.0117
 -13.000  -1.4569   0.02512   0.02064  -0.0177   0.9999   0.0120
 -12.500  -1.4334   0.02351   0.01892  -0.0135   0.9999   0.0124
 -12.000  -1.4054   0.02214   0.01743  -0.0096   0.9999   0.0128
 -11.500  -1.3699   0.02087   0.01604  -0.0068   0.9999   0.0132
 -11.000  -1.3303   0.01978   0.01484  -0.0044   0.9999   0.0136
 -10.500  -1.2945   0.01817   0.01310  -0.0016   0.9999   0.0143
 -10.000  -1.2519   0.01710   0.01196   0.0004   0.9999   0.0151
  -9.500  -1.2063   0.01625   0.01105   0.0021   0.9999   0.0159
  -9.000  -1.1591   0.01552   0.01025   0.0036   0.9999   0.0166
  -8.000  -1.0609   0.01427   0.00823   0.0057   0.7378   0.0191
  -7.500  -1.0102   0.01374   0.00759   0.0067   0.7285   0.0201
  -7.000  -0.9607   0.01296   0.00675   0.0079   0.7216   0.0221
  -6.500  -0.9087   0.01253   0.00624   0.0086   0.7153   0.0238
  -6.000  -0.8573   0.01191   0.00559   0.0095   0.7103   0.0265
  -5.500  -0.8043   0.01156   0.00516   0.0102   0.7050   0.0286
  -5.000  -0.7514   0.01099   0.00463   0.0109   0.7000   0.0329
  -4.500  -0.6979   0.01053   0.00416   0.0115   0.6944   0.0376
  -4.000  -0.6437   0.01005   0.00373   0.0119   0.6885   0.0438
  -3.500  -0.5894   0.00963   0.00333   0.0124   0.6824   0.0520
  -3.000  -0.5346   0.00920   0.00296   0.0128   0.6743   0.0630
  -2.500  -0.4798   0.00881   0.00262   0.0131   0.6657   0.0788
  -2.000  -0.4250   0.00843   0.00233   0.0135   0.6547   0.0996
  -1.500  -0.3701   0.00806   0.00206   0.0138   0.6422   0.1288
  -1.000  -0.3155   0.00769   0.00182   0.0142   0.6280   0.1681
  -0.500  -0.2608   0.00735   0.00162   0.0145   0.6121   0.2150
  -0.000  -0.2062   0.00702   0.00145   0.0148   0.5946   0.2739
   0.500  -0.1521   0.00667   0.00130   0.0152   0.5759   0.3476
   1.000  -0.0999   0.00612   0.00114   0.0159   0.5567   0.4780
   1.500  -0.0528   0.00515   0.00098   0.0175   0.5376   0.7483
   2.000   0.0043   0.00519   0.00101   0.0175   0.5182   0.7740
   2.500   0.0620   0.00528   0.00105   0.0174   0.4992   0.7877
   3.000   0.1198   0.00539   0.00110   0.0172   0.4798   0.7974
   3.500   0.1776   0.00550   0.00115   0.0170   0.4605   0.8046
   4.000   0.2351   0.00564   0.00123   0.0168   0.4399   0.8111
   4.500   0.2927   0.00582   0.00134   0.0165   0.4183   0.8175
   5.000   0.3497   0.00595   0.00144   0.0164   0.3929   0.8258
   5.500   0.4066   0.00618   0.00159   0.0162   0.3628   0.8316
   6.000   0.4634   0.00647   0.00175   0.0159   0.3269   0.8335
   6.500   0.5198   0.00683   0.00195   0.0156   0.2871   0.8340
   7.000   0.5754   0.00727   0.00221   0.0154   0.2425   0.8345
   8.000   0.6841   0.00836   0.00293   0.0153   0.1517   0.8370
   8.500   0.7376   0.00895   0.00336   0.0153   0.1147   0.8390
   9.000   0.7907   0.00956   0.00385   0.0154   0.0864   0.8412
   9.500   0.8436   0.01015   0.00436   0.0155   0.0666   0.8438
  10.000   0.8958   0.01079   0.00493   0.0157   0.0518   0.8469
  10.500   0.9481   0.01138   0.00550   0.0158   0.0430   0.8506
  11.000   0.9994   0.01199   0.00613   0.0161   0.0362   0.8562
  11.500   1.0496   0.01266   0.00683   0.0165   0.0311   0.8643
  12.000   1.0987   0.01336   0.00758   0.0171   0.0273   0.8760
  12.500   1.1468   0.01400   0.00834   0.0178   0.0247   0.8958
  13.000   1.1898   0.01481   0.00930   0.0194   0.0221   0.9333
  13.500   1.2376   0.01554   0.01017   0.0201   0.0205   0.9831
  14.000   1.2859   0.01679   0.01147   0.0198   0.0184   1.0001
  14.500   1.3280   0.01769   0.01244   0.0210   0.0175   1.0001
  15.000   1.3658   0.01885   0.01364   0.0226   0.0163   1.0001
  15.500   1.3915   0.02056   0.01545   0.0257   0.0152   1.0001
  16.000   1.4169   0.02204   0.01704   0.0285   0.0147   1.0001
  16.500   1.4379   0.02420   0.01933   0.0303   0.0141   1.0001
  17.000   1.4558   0.02755   0.02280   0.0299   0.0135   1.0001
  17.500   1.4668   0.03224   0.02763   0.0282   0.0129   1.0001
  18.000   1.4575   0.03896   0.03455   0.0266   0.0124   1.0001
  18.500   1.4595   0.04451   0.04025   0.0251   0.0122   1.0001
  19.000   1.4546   0.05105   0.04696   0.0231   0.0119   1.0001
  19.500   1.4408   0.05887   0.05497   0.0206   0.0117   1.0001
  20.000   1.4219   0.06796   0.06425   0.0171   0.0115   1.0001
  20.500   1.3972   0.07831   0.07480   0.0128   0.0113   1.0001
  21.000   1.3659   0.09008   0.08678   0.0078   0.0112   1.0001
  21.500   1.3305   0.10289   0.09979   0.0020   0.0111   1.0001
  22.000   1.2918   0.11669   0.11380  -0.0045   0.0110   1.0001
  22.500   1.2550   0.13069   0.12799  -0.0115   0.0109   1.0001
  23.000   1.2211   0.14474   0.14222  -0.0190   0.0108   1.0001
  23.500   1.1914   0.15857   0.15621  -0.0270   0.0106   1.0001
  24.000   1.1691   0.17146   0.16923  -0.0349   0.0104   1.0001
  24.500   1.1498   0.18424   0.18213  -0.0431   0.0101   1.0001
  25.000   1.1352   0.19623   0.19425  -0.0512   0.0098   1.0001
