  
       XFOIL         Version 6.99
  
 Calculated polar for: NACA 0012                                       
  
 1 1 Reynolds number fixed          Mach number fixed         
  
 xtrf =   1.000 (top)        1.000 (bottom)  
 Mach =   0.000     Re =     2.332 e 6     Ncrit =   9.000
  
   alpha    CL        CD       CDp       CM     Top_Xtr  Bot_Xtr
  ------ -------- --------- --------- -------- -------- --------
 -12.000  -1.6218   0.02121   0.01602   0.0365   0.9999   0.0118
 -11.500  -1.5904   0.02001   0.01474   0.0398   0.9999   0.0123
 -11.000  -1.5565   0.01896   0.01363   0.0430   0.9999   0.0127
 -10.500  -1.5258   0.01799   0.01243   0.0470   0.9017   0.0134
 -10.000  -1.4902   0.01732   0.01133   0.0502   0.7332   0.0144
  -9.500  -1.4514   0.01654   0.01048   0.0530   0.7263   0.0152
  -9.000  -1.4123   0.01589   0.00976   0.0559   0.7211   0.0158
  -8.500  -1.3719   0.01507   0.00891   0.0586   0.7173   0.0176
  -8.000  -1.3267   0.01448   0.00826   0.0605   0.7129   0.0188
  -7.500  -1.2812   0.01382   0.00757   0.0624   0.7092   0.0207
  -7.000  -1.2337   0.01327   0.00700   0.0639   0.7056   0.0226
  -6.500  -1.1860   0.01272   0.00643   0.0654   0.7017   0.0256
  -6.000  -1.1367   0.01219   0.00591   0.0667   0.6980   0.0286
  -5.500  -1.0868   0.01170   0.00543   0.0679   0.6938   0.0323
  -5.000  -1.0365   0.01118   0.00495   0.0690   0.6900   0.0381
  -4.000  -0.9345   0.01018   0.00405   0.0711   0.6805   0.0567
  -3.500  -0.8828   0.00969   0.00365   0.0720   0.6741   0.0706
  -3.000  -0.8312   0.00920   0.00326   0.0729   0.6670   0.0909
  -2.500  -0.7794   0.00870   0.00290   0.0738   0.6579   0.1187
  -2.000  -0.7275   0.00823   0.00257   0.0747   0.6476   0.1538
  -1.500  -0.6760   0.00773   0.00226   0.0756   0.6351   0.1992
  -1.000  -0.6242   0.00728   0.00197   0.0765   0.6199   0.2504
  -0.500  -0.5726   0.00682   0.00172   0.0774   0.6028   0.3094
  -0.000  -0.5205   0.00640   0.00149   0.0782   0.5833   0.3721
