  
       XFOIL         Version 6.99
  
 Calculated polar for: NACA 2412                                       
  
 1 1 Reynolds number fixed          Mach number fixed         
  
 xtrf =   1.000 (top)        1.000 (bottom)  
 Mach =   0.000     Re =     1.521 e 6     Ncrit =   9.000
  
   alpha    CL        CD       CDp       CM     Top_Xtr  Bot_Xtr
  ------ -------- --------- --------- -------- -------- --------
 -15.000  -1.3431   0.02639   0.02241  -0.0591   1.0000   0.0120
 -14.500  -1.3249   0.02447   0.02035  -0.0552   1.0000   0.0123
 -14.000  -1.2951   0.02280   0.01854  -0.0527   1.0000   0.0127
 -13.500  -1.2609   0.02133   0.01695  -0.0503   1.0000   0.0131
 -13.000  -1.2236   0.02010   0.01559  -0.0481   1.0000   0.0135
 -12.500  -1.1911   0.01857   0.01391  -0.0450   1.0000   0.0140
 -12.000  -1.1576   0.01726   0.01251  -0.0416   1.0000   0.0147
 -11.500  -1.1206   0.01636   0.01153  -0.0385   1.0000   0.0154
 -11.000  -1.0829   0.01560   0.01070  -0.0354   1.0000   0.0161
 -10.500  -1.0441   0.01495   0.00998  -0.0324   1.0000   0.0166
  -9.500  -0.9214   0.01296   0.00786  -0.0360   0.9960   0.0193
  -9.000  -0.8564   0.01215   0.00698  -0.0384   0.9942   0.0207
  -8.500  -0.7938   0.01146   0.00628  -0.0402   0.9908   0.0227
  -8.000  -0.7283   0.01078   0.00557  -0.0425   0.9874   0.0249
  -7.500  -0.6605   0.01018   0.00496  -0.0452   0.9840   0.0275
  -7.000  -0.6022   0.00960   0.00438  -0.0458   0.9753   0.0310
  -6.500  -0.5457   0.00912   0.00389  -0.0458   0.9650   0.0349
  -6.000  -0.4914   0.00870   0.00346  -0.0453   0.9513   0.0394
  -5.500  -0.4380   0.00830   0.00306  -0.0446   0.9332   0.0460
  -4.500  -0.3309   0.00763   0.00233  -0.0432   0.8772   0.0677
  -3.500  -0.2231   0.00722   0.00179  -0.0421   0.7912   0.1062
  -3.000  -0.1685   0.00703   0.00159  -0.0417   0.7534   0.1354
  -2.500  -0.1133   0.00684   0.00142  -0.0415   0.7264   0.1717
  -2.000  -0.0575   0.00663   0.00129  -0.0414   0.7058   0.2157
  -1.500  -0.0017   0.00641   0.00118  -0.0413   0.6840   0.2675
  -1.000   0.0542   0.00619   0.00109  -0.0413   0.6590   0.3293
  -0.500   0.1094   0.00596   0.00102  -0.0412   0.6314   0.4084
  -0.000   0.1639   0.00566   0.00099  -0.0409   0.6020   0.5261
   0.500   0.2182   0.00538   0.00099  -0.0406   0.5735   0.6449
   1.000   0.2715   0.00516   0.00105  -0.0400   0.5461   0.7716
   1.500   0.3262   0.00518   0.00114  -0.0395   0.5186   0.8282
   2.000   0.3809   0.00523   0.00123  -0.0390   0.4933   0.8732
   2.500   0.4346   0.00534   0.00136  -0.0382   0.4680   0.9111
   3.000   0.4879   0.00548   0.00149  -0.0373   0.4430   0.9437
   3.500   0.5424   0.00570   0.00164  -0.0368   0.4159   0.9691
   4.000   0.6045   0.00599   0.00181  -0.0381   0.3824   0.9844
   4.500   0.6739   0.00641   0.00205  -0.0412   0.3390   0.9933
   5.000   0.7464   0.00691   0.00233  -0.0451   0.2887   0.9974
   5.500   0.8089   0.00749   0.00266  -0.0469   0.2355   1.0000
   6.000   0.8520   0.00808   0.00303  -0.0445   0.1879   1.0000
   6.500   0.8958   0.00873   0.00346  -0.0423   0.1443   1.0000
   7.000   0.9406   0.00939   0.00393  -0.0403   0.1085   1.0000
   7.500   0.9873   0.01006   0.00445  -0.0388   0.0819   1.0000
   8.000   1.0352   0.01071   0.00500  -0.0375   0.0632   1.0000
   8.500   1.0832   0.01139   0.00559  -0.0363   0.0498   1.0000
   9.000   1.1312   0.01206   0.00622  -0.0351   0.0407   1.0000
   9.500   1.1788   0.01275   0.00688  -0.0340   0.0345   1.0000
  10.000   1.2254   0.01349   0.00761  -0.0327   0.0297   1.0000
  10.500   1.2719   0.01420   0.00833  -0.0314   0.0267   1.0000
  11.000   1.3161   0.01502   0.00918  -0.0298   0.0239   1.0000
  11.500   1.3584   0.01592   0.01009  -0.0280   0.0215   1.0000
  12.000   1.3990   0.01684   0.01108  -0.0260   0.0199   1.0000
  12.500   1.4363   0.01783   0.01211  -0.0235   0.0184   1.0000
  13.000   1.4637   0.01910   0.01346  -0.0195   0.0170   1.0000
  13.500   1.4943   0.02024   0.01468  -0.0163   0.0161   1.0000
  14.000   1.5202   0.02173   0.01625  -0.0129   0.0152   1.0000
  14.500   1.5361   0.02404   0.01867  -0.0091   0.0142   1.0000
  15.000   1.5580   0.02615   0.02090  -0.0066   0.0138   1.0000
  15.500   1.5765   0.02875   0.02363  -0.0045   0.0133   1.0000
  16.000   1.5907   0.03199   0.02700  -0.0029   0.0128   1.0000
  16.500   1.5993   0.03611   0.03125  -0.0020   0.0123   1.0000
  17.000   1.5968   0.04175   0.03705  -0.0017   0.0118   1.0000
  17.500   1.5843   0.04893   0.04445  -0.0024   0.0114   1.0000
  18.000   1.5811   0.05536   0.05105  -0.0036   0.0112   1.0000
  18.500   1.5699   0.06321   0.05910  -0.0057   0.0110   1.0000
  19.000   1.5509   0.07247   0.06856  -0.0086   0.0108   1.0000
  19.500   1.5253   0.08306   0.07937  -0.0123   0.0107   1.0000
  20.000   1.4931   0.09509   0.09162  -0.0170   0.0106   1.0000
  20.500   1.4565   0.10818   0.10493  -0.0226   0.0104   1.0000
  21.000   1.4183   0.12204   0.11901  -0.0290   0.0103   1.0000
  21.500   1.3801   0.13644   0.13362  -0.0364   0.0103   1.0000
  22.000   1.3460   0.15060   0.14797  -0.0442   0.0102   1.0000
  22.500   1.3162   0.16456   0.16210  -0.0526   0.0100   1.0000
  23.000   1.2905   0.17830   0.17601  -0.0615   0.0099   1.0000
  23.500   1.2715   0.19092   0.18875  -0.0700   0.0097   1.0000
  24.000   1.2560   0.20324   0.20119  -0.0788   0.0094   1.0000
  24.500   1.2434   0.21524   0.21331  -0.0875   0.0091   1.0000
  25.000   1.2308   0.22796   0.22618  -0.0969   0.0090   1.0000
