  
       XFOIL         Version 6.99
  
 Calculated polar for: NACA 0012                                       
  
 1 1 Reynolds number fixed          Mach number fixed         
  
 xtrf =   1.000 (top)        1.000 (bottom)  
 Mach =   0.000     Re =     1.521 e 6     Ncrit =   9.000
  
   alpha    CL        CD       CDp       CM     Top_Xtr  Bot_Xtr
  ------ -------- --------- --------- -------- -------- --------
 -12.000  -1.6810   0.03378   0.02803   0.0467   0.7222   0.0120
 -11.500  -1.6716   0.03076   0.02483   0.0517   0.7195   0.0127
 -11.000  -1.6493   0.02876   0.02272   0.0556   0.7169   0.0133
 -10.500  -1.6223   0.02711   0.02097   0.0592   0.7139   0.0139
 -10.000  -1.5923   0.02566   0.01941   0.0625   0.7113   0.0145
  -9.500  -1.5617   0.02426   0.01789   0.0659   0.7084   0.0151
  -9.000  -1.5311   0.02278   0.01634   0.0695   0.7055   0.0163
  -8.500  -1.4956   0.02168   0.01516   0.0724   0.7022   0.0173
  -8.000  -1.4577   0.02074   0.01413   0.0751   0.6993   0.0181
  -7.500  -1.4220   0.01950   0.01287   0.0783   0.6957   0.0200
  -7.000  -1.3821   0.01865   0.01195   0.0808   0.6924   0.0215
  -6.500  -1.3422   0.01770   0.01098   0.0835   0.6891   0.0237
  -6.000  -1.3002   0.01692   0.01017   0.0859   0.6852   0.0259
  -5.500  -1.2584   0.01607   0.00932   0.0883   0.6822   0.0291
  -5.000  -1.2149   0.01534   0.00858   0.0905   0.6780   0.0329
  -4.500  -1.1708   0.01464   0.00789   0.0927   0.6735   0.0373
  -4.000  -1.1264   0.01395   0.00721   0.0949   0.6696   0.0437
  -3.500  -1.0820   0.01324   0.00658   0.0971   0.6640   0.0537
  -3.000  -1.0374   0.01256   0.00597   0.0993   0.6582   0.0669
  -2.500  -0.9927   0.01192   0.00541   0.1015   0.6518   0.0847
  -2.000  -0.9499   0.01126   0.00488   0.1041   0.6441   0.1098
  -1.500  -0.9102   0.01062   0.00440   0.1074   0.6358   0.1434
  -1.000  -0.8676   0.00995   0.00392   0.1101   0.6258   0.1881
  -0.500  -0.8254   0.00926   0.00346   0.1128   0.6151   0.2432
  -0.000  -0.7833   0.00857   0.00303   0.1156   0.6032   0.3079
