  
       XFOIL         Version 6.99
  
 Calculated polar for: NACA 2412                                       
  
 1 1 Reynolds number fixed          Mach number fixed         
  
 xtrf =   1.000 (top)        1.000 (bottom)  
 Mach =   0.000     Re =     1.521 e 6     Ncrit =   9.000
  
   alpha    CL        CD       CDp       CM     Top_Xtr  Bot_Xtr
  ------ -------- --------- --------- -------- -------- --------
 -15.000  -0.2996   0.01607   0.01128  -0.2108   0.7591   0.0210
 -14.500  -0.2452   0.01554   0.01068  -0.2123   0.7596   0.0227
 -14.000  -0.1872   0.01492   0.00999  -0.2139   0.7600   0.0244
 -13.500  -0.1279   0.01410   0.00908  -0.2156   0.7604   0.0265
 -13.000  -0.0688   0.01345   0.00838  -0.2171   0.7608   0.0292
 -12.500  -0.0097   0.01280   0.00770  -0.2186   0.7614   0.0324
 -12.000   0.0488   0.01240   0.00726  -0.2197   0.7621   0.0355
 -11.500   0.1065   0.01202   0.00690  -0.2208   0.7630   0.0409
 -11.000   0.1634   0.01182   0.00674  -0.2216   0.7640   0.0473
 -10.500   0.2197   0.01178   0.00674  -0.2223   0.7652   0.0556
 -10.000   0.2758   0.01182   0.00684  -0.2229   0.7665   0.0658
  -9.500   0.3305   0.01194   0.00703  -0.2233   0.7678   0.0798
  -9.000   0.3852   0.01207   0.00726  -0.2235   0.7691   0.0990
  -8.500   0.4424   0.01196   0.00722  -0.2241   0.7690   0.1212
  -8.000   0.5040   0.01142   0.00673  -0.2254   0.7671   0.1490
  -7.500   0.5637   0.01108   0.00647  -0.2264   0.7662   0.1815
  -7.000   0.6230   0.01076   0.00623  -0.2272   0.7652   0.2159
  -6.500   0.6827   0.01042   0.00597  -0.2280   0.7643   0.2537
  -6.000   0.7429   0.01010   0.00571  -0.2289   0.7635   0.2901
  -5.500   0.8030   0.00977   0.00547  -0.2298   0.7632   0.3291
  -5.000   0.8630   0.00942   0.00522  -0.2306   0.7636   0.3682
  -4.500   0.9236   0.00905   0.00493  -0.2315   0.7633   0.4068
  -4.000   0.9833   0.00886   0.00481  -0.2322   0.7613   0.4489
  -3.500   1.0401   0.00875   0.00481  -0.2323   0.7588   0.4850
  -3.000   1.0995   0.00809   0.00424  -0.2327   0.7551   0.5155
  -2.500   1.1604   0.00737   0.00349  -0.2333   0.7482   0.5386
  -2.000   1.2153   0.00694   0.00314  -0.2328   0.7392   0.5574
  -1.500   1.2263   0.00778   0.00355  -0.2232   0.6073   0.5710
  -1.000   1.1918   0.01048   0.00591  -0.2055   0.5161   0.5801
  -0.500   1.1881   0.01354   0.00881  -0.1956   0.4642   0.5906
  -0.000   1.1996   0.01618   0.01130  -0.1886   0.4199   0.6005
   0.500   1.2187   0.01817   0.01311  -0.1828   0.3749   0.6096
   1.000   1.2409   0.01980   0.01453  -0.1772   0.3241   0.6180
   1.500   1.2662   0.02119   0.01562  -0.1721   0.2671   0.6258
   2.000   1.2949   0.02240   0.01654  -0.1675   0.2096   0.6321
   2.500   1.3261   0.02353   0.01737  -0.1634   0.1559   0.6384
   3.000   1.3604   0.02457   0.01817  -0.1597   0.1157   0.6441
   3.500   1.3955   0.02561   0.01904  -0.1563   0.0845   0.6487
   4.000   1.4319   0.02662   0.01993  -0.1531   0.0643   0.6537
   4.500   1.4681   0.02767   0.02089  -0.1500   0.0499   0.6584
   5.000   1.5045   0.02874   0.02193  -0.1469   0.0412   0.6610
   5.500   1.5401   0.02988   0.02305  -0.1438   0.0345   0.6637
   6.000   1.5745   0.03109   0.02424  -0.1406   0.0294   0.6669
   6.500   1.6092   0.03228   0.02545  -0.1375   0.0263   0.6707
   7.000   1.6425   0.03358   0.02679  -0.1342   0.0234   0.6725
   7.500   1.6729   0.03509   0.02833  -0.1307   0.0208   0.6745
   8.000   1.7029   0.03663   0.02994  -0.1272   0.0193   0.6773
   8.500   1.7311   0.03833   0.03168  -0.1235   0.0177   0.6803
   9.000   1.7574   0.04018   0.03361  -0.1197   0.0163   0.6822
   9.500   1.7824   0.04214   0.03565  -0.1160   0.0153   0.6843
  10.000   1.8040   0.04438   0.03797  -0.1119   0.0143   0.6866
  10.500   1.8216   0.04702   0.04072  -0.1076   0.0133   0.6890
  11.000   1.8405   0.04960   0.04342  -0.1036   0.0128   0.6910
  11.500   1.8581   0.05231   0.04624  -0.0997   0.0122   0.6929
  12.000   1.8691   0.05571   0.04975  -0.0955   0.0117   0.6949
  12.500   1.8720   0.06003   0.05421  -0.0910   0.0110   0.6968
  13.000   1.8769   0.06434   0.05869  -0.0872   0.0106   0.6985
  13.500   1.8818   0.06882   0.06333  -0.0838   0.0103   0.7002
  14.000   1.8810   0.07429   0.06897  -0.0810   0.0100   0.7018
  14.500   1.8767   0.08061   0.07547  -0.0791   0.0097   0.7031
  15.000   1.8677   0.08790   0.08295  -0.0781   0.0095   0.7046
  15.500   1.8539   0.09615   0.09140  -0.0782   0.0092   0.7061
  16.000   1.8331   0.10573   0.10119  -0.0796   0.0090   0.7071
  16.500   1.8043   0.11679   0.11249  -0.0825   0.0087   0.7079
  17.000   1.7697   0.12923   0.12519  -0.0873   0.0086   0.7085
  17.500   1.7345   0.14235   0.13857  -0.0938   0.0084   0.7090
  18.000   1.7124   0.15347   0.14990  -0.0999   0.0083   0.7098
  18.500   1.6892   0.16514   0.16179  -0.1072   0.0083   0.7105
  19.000   1.6660   0.17723   0.17409  -0.1155   0.0082   0.7114
  19.500   1.6433   0.18957   0.18664  -0.1246   0.0081   0.7122
  20.000   1.6208   0.20232   0.19958  -0.1347   0.0080   0.7129
  20.500   1.5994   0.21510   0.21255  -0.1452   0.0079   0.7135
  21.000   1.5822   0.22725   0.22486  -0.1555   0.0078   0.7140
  21.500   1.5651   0.23985   0.23763  -0.1665   0.0076   0.7145
  22.000   1.5514   0.25196   0.24987  -0.1773   0.0074   0.7149
  22.500   1.5405   0.26365   0.26169  -0.1878   0.0072   0.7155
  23.000   1.5312   0.27521   0.27336  -0.1984   0.0069   0.7161
  23.500   1.5223   0.28703   0.28529  -0.2093   0.0067   0.7167
  24.500   0.8851   0.33848   0.33727  -0.1584   0.0047   0.7093
  25.000   0.8839   0.35019   0.34899  -0.1611   0.0039   0.7102
