  
       XFOIL         Version 6.99
  
 Calculated polar for: NACA 0012                                       
  
 1 1 Reynolds number fixed          Mach number fixed         
  
 xtrf =   1.000 (top)        1.000 (bottom)  
 Mach =   0.000     Re =     2.332 e 6     Ncrit =   9.000
  
   alpha    CL        CD       CDp       CM     Top_Xtr  Bot_Xtr
  ------ -------- --------- --------- -------- -------- --------
 -12.000  -1.0199   0.01218   0.00723  -0.0470   0.9506   0.0178
 -11.500  -0.9713   0.01150   0.00647  -0.0460   0.9291   0.0199
 -11.000  -0.9199   0.01103   0.00591  -0.0455   0.9102   0.0213
 -10.500  -0.8680   0.01046   0.00528  -0.0451   0.8943   0.0238
 -10.000  -0.8144   0.01004   0.00480  -0.0450   0.8818   0.0259
  -9.500  -0.7609   0.00956   0.00430  -0.0448   0.8711   0.0297
  -9.000  -0.7064   0.00912   0.00385  -0.0448   0.8630   0.0341
  -8.500  -0.6516   0.00872   0.00344  -0.0448   0.8556   0.0399
  -8.000  -0.5960   0.00832   0.00307  -0.0449   0.8511   0.0473
  -7.500  -0.5402   0.00795   0.00273  -0.0450   0.8465   0.0569
  -6.500  -0.4284   0.00722   0.00212  -0.0452   0.8332   0.0892
  -6.000  -0.3724   0.00686   0.00185  -0.0453   0.8266   0.1149
  -5.500  -0.3160   0.00651   0.00162  -0.0455   0.8208   0.1458
  -5.000  -0.2594   0.00614   0.00140  -0.0457   0.8162   0.1850
  -4.500  -0.2025   0.00584   0.00123  -0.0459   0.8106   0.2251
  -4.000  -0.1456   0.00556   0.00109  -0.0462   0.8043   0.2698
  -3.500  -0.0882   0.00528   0.00097  -0.0464   0.7990   0.3145
  -3.000  -0.0309   0.00507   0.00088  -0.0466   0.7910   0.3582
  -2.500   0.0268   0.00487   0.00082  -0.0469   0.7828   0.4009
  -2.000   0.0842   0.00473   0.00077  -0.0471   0.7705   0.4411
  -1.500   0.1417   0.00460   0.00073  -0.0473   0.7529   0.4800
  -1.000   0.1941   0.00494   0.00077  -0.0464   0.6274   0.5157
  -0.500   0.2476   0.00528   0.00089  -0.0459   0.5378   0.5491
  -0.000   0.3020   0.00555   0.00101  -0.0456   0.4682   0.5802
