  
       XFOIL         Version 6.99
  
 Calculated polar for: NACA 0012                                       
  
 1 1 Reynolds number fixed          Mach number fixed         
  
 xtrf =   1.000 (top)        1.000 (bottom)  
 Mach =   0.000     Re =     2.982 e 6     Ncrit =   9.000
  
   alpha    CL        CD       CDp       CM     Top_Xtr  Bot_Xtr
  ------ -------- --------- --------- -------- -------- --------
  -5.000  -0.5502   0.00681   0.00213  -0.0024   0.9294   0.0907
  -4.800  -0.5288   0.00669   0.00203  -0.0022   0.9198   0.0991
  -4.700  -0.5182   0.00661   0.00197  -0.0021   0.9141   0.1052
  -4.600  -0.5075   0.00657   0.00192  -0.0019   0.9084   0.1091
  -4.500  -0.4967   0.00649   0.00186  -0.0018   0.9033   0.1160
  -4.400  -0.4859   0.00643   0.00181  -0.0017   0.8970   0.1210
  -4.300  -0.4752   0.00638   0.00176  -0.0016   0.8907   0.1270
  -4.200  -0.4643   0.00631   0.00171  -0.0015   0.8846   0.1340
  -4.100  -0.4535   0.00626   0.00166  -0.0014   0.8778   0.1402
  -4.000  -0.4427   0.00619   0.00161  -0.0013   0.8714   0.1479
  -3.900  -0.4317   0.00615   0.00157  -0.0013   0.8640   0.1531
  -3.800  -0.4211   0.00609   0.00152  -0.0012   0.8571   0.1616
  -3.700  -0.4100   0.00604   0.00148  -0.0011   0.8498   0.1692
  -3.500  -0.3883   0.00594   0.00140  -0.0010   0.8345   0.1846
  -3.400  -0.3775   0.00588   0.00136  -0.0009   0.8261   0.1937
  -3.300  -0.3665   0.00584   0.00132  -0.0008   0.8188   0.2019
  -3.200  -0.3556   0.00579   0.00128  -0.0007   0.8098   0.2107
  -3.100  -0.3446   0.00574   0.00124  -0.0007   0.8021   0.2192
  -3.000  -0.3337   0.00571   0.00121  -0.0006   0.7932   0.2279
  -2.900  -0.3227   0.00565   0.00117  -0.0006   0.7850   0.2378
  -2.800  -0.3117   0.00563   0.00115  -0.0005   0.7761   0.2457
  -2.700  -0.3007   0.00558   0.00111  -0.0005   0.7676   0.2555
  -2.600  -0.2897   0.00555   0.00109  -0.0004   0.7583   0.2651
  -2.500  -0.2786   0.00551   0.00106  -0.0004   0.7497   0.2743
  -2.400  -0.2676   0.00548   0.00103  -0.0004   0.7400   0.2832
  -2.300  -0.2565   0.00545   0.00101  -0.0003   0.7309   0.2915
  -2.200  -0.2455   0.00541   0.00098  -0.0003   0.7216   0.3028
  -2.100  -0.2344   0.00539   0.00096  -0.0003   0.7125   0.3118
  -2.000  -0.2233   0.00536   0.00094  -0.0002   0.7036   0.3225
  -1.900  -0.2122   0.00533   0.00092  -0.0002   0.6941   0.3311
  -1.800  -0.2010   0.00531   0.00090  -0.0002   0.6852   0.3404
  -1.700  -0.1900   0.00529   0.00088  -0.0002   0.6750   0.3509
  -1.600  -0.1788   0.00527   0.00086  -0.0002   0.6659   0.3591
  -1.500  -0.1678   0.00525   0.00085  -0.0001   0.6562   0.3702
  -1.400  -0.1565   0.00522   0.00083  -0.0001   0.6474   0.3791
  -1.300  -0.1454   0.00521   0.00082  -0.0001   0.6376   0.3894
  -1.200  -0.1343   0.00519   0.00081  -0.0001   0.6277   0.3987
  -1.100  -0.1230   0.00518   0.00080  -0.0001   0.6187   0.4081
  -1.000  -0.1120   0.00516   0.00078  -0.0001   0.6088   0.4187
  -0.900  -0.1007   0.00515   0.00077  -0.0001   0.5998   0.4271
  -0.800  -0.0896   0.00515   0.00077  -0.0000   0.5898   0.4378
  -0.700  -0.0784   0.00513   0.00076  -0.0000   0.5804   0.4469
  -0.600  -0.0672   0.00513   0.00075  -0.0000   0.5710   0.4559
  -0.500  -0.0560   0.00511   0.00075  -0.0000   0.5614   0.4668
  -0.400  -0.0448   0.00511   0.00074  -0.0000   0.5523   0.4754
  -0.300  -0.0336   0.00511   0.00074  -0.0000   0.5423   0.4856
  -0.200  -0.0224   0.00510   0.00074  -0.0000   0.5339   0.4954
  -0.100  -0.0112   0.00511   0.00073  -0.0000   0.5229   0.5047
   0.000   0.0000   0.00510   0.00073  -0.0000   0.5142   0.5143
   0.100   0.0112   0.00511   0.00073  -0.0000   0.5045   0.5230
   0.200   0.0224   0.00510   0.00074   0.0000   0.4955   0.5336
   0.300   0.0337   0.00511   0.00074   0.0000   0.4857   0.5420
   0.400   0.0448   0.00511   0.00074   0.0000   0.4752   0.5525
   0.500   0.0560   0.00511   0.00075   0.0000   0.4666   0.5615
   0.600   0.0672   0.00513   0.00075   0.0000   0.4559   0.5719
   0.700   0.0784   0.00513   0.00076   0.0000   0.4474   0.5807
   0.900   0.1007   0.00515   0.00077   0.0001   0.4274   0.6000
   1.000   0.1120   0.00517   0.00078   0.0001   0.4183   0.6087
   1.100   0.1231   0.00518   0.00080   0.0001   0.4081   0.6185
   1.200   0.1343   0.00519   0.00081   0.0001   0.3991   0.6286
   1.300   0.1454   0.00521   0.00082   0.0001   0.3894   0.6376
   1.400   0.1566   0.00522   0.00083   0.0001   0.3794   0.6474
   1.500   0.1678   0.00525   0.00085   0.0001   0.3701   0.6566
   1.600   0.1788   0.00527   0.00086   0.0002   0.3598   0.6660
   1.700   0.1901   0.00528   0.00088   0.0002   0.3514   0.6751
   1.800   0.2011   0.00531   0.00090   0.0002   0.3406   0.6849
   1.900   0.2123   0.00533   0.00092   0.0002   0.3315   0.6933
   2.000   0.2233   0.00536   0.00094   0.0002   0.3220   0.7033
   2.100   0.2344   0.00539   0.00096   0.0003   0.3116   0.7125
   2.200   0.2455   0.00541   0.00098   0.0003   0.3028   0.7219
   2.300   0.2565   0.00545   0.00101   0.0003   0.2923   0.7313
   2.400   0.2677   0.00548   0.00103   0.0004   0.2838   0.7400
   2.500   0.2786   0.00551   0.00106   0.0004   0.2742   0.7492
   2.700   0.3007   0.00558   0.00111   0.0005   0.2555   0.7673
   2.800   0.3117   0.00563   0.00115   0.0005   0.2458   0.7761
   2.900   0.3227   0.00566   0.00117   0.0006   0.2375   0.7846
   3.000   0.3336   0.00571   0.00121   0.0006   0.2275   0.7932
   3.100   0.3446   0.00574   0.00124   0.0007   0.2198   0.8022
   3.200   0.3556   0.00579   0.00128   0.0007   0.2111   0.8103
   3.300   0.3665   0.00583   0.00132   0.0008   0.2031   0.8188
   3.400   0.3775   0.00588   0.00136   0.0009   0.1938   0.8261
   3.500   0.3883   0.00594   0.00140   0.0010   0.1847   0.8347
   3.600   0.3994   0.00598   0.00144   0.0010   0.1780   0.8419
   3.700   0.4100   0.00604   0.00148   0.0011   0.1689   0.8498
   3.800   0.4211   0.00608   0.00152   0.0011   0.1628   0.8569
   3.900   0.4317   0.00615   0.00157   0.0013   0.1533   0.8641
   4.000   0.4427   0.00619   0.00161   0.0013   0.1478   0.8714
   4.100   0.4535   0.00626   0.00166   0.0014   0.1400   0.8777
   4.200   0.4643   0.00631   0.00171   0.0015   0.1340   0.8845
   4.300   0.4752   0.00638   0.00176   0.0016   0.1269   0.8907
   4.400   0.4859   0.00643   0.00181   0.0017   0.1211   0.8969
   4.500   0.4967   0.00649   0.00186   0.0018   0.1159   0.9031
   4.600   0.5075   0.00657   0.00192   0.0019   0.1091   0.9085
   4.700   0.5181   0.00661   0.00197   0.0021   0.1050   0.9142
   4.800   0.5288   0.00668   0.00202   0.0022   0.1000   0.9198
   5.000   0.5502   0.00681   0.00213   0.0024   0.0907   0.9294
   5.100   0.5607   0.00689   0.00220   0.0026   0.0855   0.9345
   5.200   0.5716   0.00694   0.00225   0.0027   0.0825   0.9388
   5.300   0.5822   0.00701   0.00231   0.0028   0.0789   0.9429
   5.400   0.5924   0.00709   0.00237   0.0030   0.0741   0.9475
   5.500   0.6031   0.00715   0.00243   0.0032   0.0714   0.9516
   5.600   0.6138   0.00722   0.00249   0.0033   0.0686   0.9551
   5.700   0.6242   0.00731   0.00255   0.0035   0.0651   0.9587
   5.800   0.6347   0.00737   0.00262   0.0037   0.0622   0.9623
   5.900   0.6453   0.00743   0.00267   0.0038   0.0605   0.9658
   6.000   0.6557   0.00751   0.00273   0.0040   0.0580   0.9690
   6.100   0.6664   0.00760   0.00281   0.0041   0.0549   0.9717
   6.200   0.6774   0.00767   0.00287   0.0041   0.0529   0.9742
   6.300   0.6885   0.00774   0.00293   0.0042   0.0512   0.9768
   6.400   0.6991   0.00782   0.00300   0.0043   0.0491   0.9795
   6.500   0.7093   0.00791   0.00308   0.0045   0.0465   0.9822
   6.600   0.7212   0.00798   0.00314   0.0044   0.0453   0.9838
   6.700   0.7336   0.00805   0.00320   0.0041   0.0440   0.9851
   6.800   0.7459   0.00814   0.00328   0.0038   0.0424   0.9864
   6.900   0.7579   0.00825   0.00337   0.0036   0.0402   0.9877
   7.000   0.7700   0.00833   0.00344   0.0034   0.0390   0.9891
   7.100   0.7820   0.00840   0.00351   0.0032   0.0380   0.9904
   7.200   0.7940   0.00849   0.00358   0.0030   0.0368   0.9916
   7.300   0.8058   0.00859   0.00367   0.0028   0.0353   0.9928
   7.400   0.8175   0.00870   0.00376   0.0027   0.0335   0.9938
   7.500   0.8307   0.00877   0.00384   0.0022   0.0330   0.9940
   7.600   0.8439   0.00885   0.00392   0.0017   0.0322   0.9943
   7.700   0.8570   0.00895   0.00400   0.0012   0.0313   0.9946
   7.800   0.8700   0.00905   0.00409   0.0008   0.0302   0.9949
   7.900   0.8829   0.00917   0.00419   0.0003   0.0289   0.9953
   8.000   0.8958   0.00926   0.00428  -0.0001   0.0282   0.9956
   8.100   0.9088   0.00934   0.00436  -0.0005   0.0278   0.9960
   8.200   0.9217   0.00943   0.00445  -0.0009   0.0271   0.9964
   8.300   0.9344   0.00953   0.00454  -0.0013   0.0264   0.9968
   8.400   0.9471   0.00964   0.00464  -0.0017   0.0256   0.9972
   8.500   0.9597   0.00977   0.00476  -0.0021   0.0245   0.9976
   8.600   0.9723   0.00987   0.00486  -0.0025   0.0239   0.9980
   8.700   0.9850   0.00995   0.00494  -0.0028   0.0236   0.9984
   8.800   0.9977   0.01005   0.00503  -0.0032   0.0232   0.9988
   8.900   1.0103   0.01015   0.00513  -0.0036   0.0228   0.9991
   9.000   1.0228   0.01025   0.00523  -0.0039   0.0222   0.9994
   9.100   1.0352   0.01037   0.00534  -0.0043   0.0217   0.9997
   9.200   1.0476   0.01050   0.00546  -0.0046   0.0210   0.9999
   9.300   1.0568   0.01062   0.00559  -0.0043   0.0204   1.0000
   9.400   1.0652   0.01072   0.00569  -0.0037   0.0201   1.0000
   9.500   1.0739   0.01080   0.00577  -0.0033   0.0199   1.0000
   9.600   1.0826   0.01088   0.00586  -0.0028   0.0197   1.0000
   9.700   1.0913   0.01097   0.00595  -0.0023   0.0195   1.0000
   9.800   1.1000   0.01107   0.00604  -0.0018   0.0192   1.0000
   9.900   1.1088   0.01117   0.00615  -0.0014   0.0189   1.0000
  10.000   1.1175   0.01127   0.00625  -0.0009   0.0186   1.0000
  10.100   1.1263   0.01138   0.00636  -0.0005   0.0183   1.0000
  10.200   1.1351   0.01150   0.00647  -0.0001   0.0179   1.0000
  10.300   1.1438   0.01163   0.00660   0.0004   0.0174   1.0000
  10.400   1.1523   0.01178   0.00676   0.0008   0.0169   1.0000
  10.500   1.1613   0.01190   0.00688   0.0012   0.0167   1.0000
  10.600   1.1706   0.01199   0.00698   0.0016   0.0166   1.0000
  10.700   1.1799   0.01209   0.00708   0.0019   0.0165   1.0000
  10.800   1.1893   0.01220   0.00719   0.0022   0.0163   1.0000
  10.900   1.1986   0.01231   0.00731   0.0025   0.0162   1.0000
  11.000   1.2080   0.01242   0.00742   0.0028   0.0160   1.0000
  11.100   1.2174   0.01254   0.00755   0.0030   0.0158   1.0000
  11.200   1.2268   0.01267   0.00767   0.0033   0.0155   1.0000
  11.300   1.2362   0.01280   0.00780   0.0036   0.0153   1.0000
  11.400   1.2456   0.01293   0.00794   0.0039   0.0151   1.0000
  11.500   1.2548   0.01307   0.00809   0.0041   0.0149   1.0000
  11.600   1.2640   0.01323   0.00824   0.0044   0.0146   1.0000
  11.700   1.2730   0.01340   0.00842   0.0047   0.0142   1.0000
  11.800   1.2819   0.01359   0.00862   0.0051   0.0139   1.0000
  11.900   1.2911   0.01375   0.00879   0.0053   0.0137   1.0000
  12.000   1.3006   0.01387   0.00892   0.0056   0.0137   1.0000
  12.100   1.3101   0.01400   0.00905   0.0058   0.0136   1.0000
  12.200   1.3196   0.01413   0.00919   0.0060   0.0135   1.0000
  12.300   1.3290   0.01426   0.00933   0.0063   0.0134   1.0000
  12.400   1.3383   0.01440   0.00948   0.0065   0.0133   1.0000
  12.500   1.3476   0.01454   0.00963   0.0067   0.0132   1.0000
  12.600   1.3568   0.01469   0.00978   0.0070   0.0131   1.0000
  12.700   1.3659   0.01484   0.00994   0.0073   0.0130   1.0000
  12.800   1.3750   0.01499   0.01010   0.0075   0.0128   1.0000
  12.900   1.3840   0.01515   0.01026   0.0078   0.0127   1.0000
  13.000   1.3929   0.01531   0.01043   0.0081   0.0125   1.0000
  13.100   1.4017   0.01548   0.01061   0.0084   0.0124   1.0000
  13.200   1.4104   0.01566   0.01079   0.0087   0.0122   1.0000
  13.300   1.4189   0.01585   0.01099   0.0090   0.0120   1.0000
  13.400   1.4272   0.01606   0.01120   0.0094   0.0118   1.0000
  13.500   1.4352   0.01628   0.01143   0.0098   0.0116   1.0000
  13.600   1.4429   0.01653   0.01170   0.0102   0.0114   1.0000
  13.700   1.4503   0.01681   0.01199   0.0107   0.0111   1.0000
  13.800   1.4589   0.01697   0.01217   0.0110   0.0111   1.0000
  13.900   1.4673   0.01714   0.01235   0.0114   0.0111   1.0000
  14.000   1.4757   0.01731   0.01253   0.0117   0.0110   1.0000
  14.100   1.4840   0.01748   0.01272   0.0120   0.0110   1.0000
  14.200   1.4921   0.01767   0.01291   0.0124   0.0109   1.0000
  14.300   1.5002   0.01785   0.01311   0.0128   0.0109   1.0000
  14.400   1.5081   0.01804   0.01331   0.0132   0.0108   1.0000
  14.500   1.5158   0.01824   0.01352   0.0136   0.0108   1.0000
  14.600   1.5234   0.01844   0.01373   0.0140   0.0107   1.0000
  14.700   1.5308   0.01865   0.01396   0.0145   0.0106   1.0000
  14.800   1.5381   0.01885   0.01418   0.0149   0.0105   1.0000
  14.900   1.5452   0.01907   0.01440   0.0154   0.0105   1.0000
  15.000   1.5518   0.01929   0.01464   0.0160   0.0104   1.0000
