  
       XFOIL         Version 6.99
  
 Calculated polar for: NACA 2412                                       
  
 1 1 Reynolds number fixed          Mach number fixed         
  
 xtrf =   1.000 (top)        1.000 (bottom)  
 Mach =   0.000     Re =     2.332 e 6     Ncrit =   9.000
  
   alpha    CL        CD       CDp       CM     Top_Xtr  Bot_Xtr
  ------ -------- --------- --------- -------- -------- --------
  -5.000  -0.3920   0.00735   0.00228  -0.0421   0.8536   0.0486
  -4.500  -0.3378   0.00718   0.00200  -0.0416   0.8065   0.0587
  -4.000  -0.2830   0.00704   0.00177  -0.0413   0.7615   0.0711
  -3.500  -0.2275   0.00685   0.00156  -0.0411   0.7308   0.0899
  -3.000  -0.1713   0.00666   0.00139  -0.0411   0.7111   0.1131
  -2.500  -0.1149   0.00644   0.00124  -0.0411   0.6926   0.1432
  -2.000  -0.0585   0.00624   0.00111  -0.0411   0.6691   0.1799
  -1.500  -0.0022   0.00606   0.00101  -0.0412   0.6431   0.2232
  -1.000   0.0540   0.00592   0.00093  -0.0412   0.6152   0.2732
  -0.500   0.1101   0.00579   0.00088  -0.0412   0.5860   0.3304
   0.000   0.1660   0.00562   0.00085  -0.0412   0.5580   0.4049
   0.500   0.2213   0.00539   0.00085  -0.0411   0.5312   0.5155
   1.000   0.2766   0.00520   0.00088  -0.0410   0.5048   0.6211
   1.500   0.3310   0.00496   0.00094  -0.0407   0.4808   0.7504
   2.000   0.3866   0.00497   0.00103  -0.0405   0.4562   0.8076
   2.500   0.4422   0.00503   0.00113  -0.0402   0.4325   0.8514
   3.000   0.4971   0.00515   0.00126  -0.0399   0.4054   0.8899
   3.500   0.5508   0.00531   0.00140  -0.0392   0.3740   0.9251
   4.000   0.6031   0.00558   0.00159  -0.0382   0.3376   0.9556
   4.500   0.6575   0.00593   0.00181  -0.0379   0.2959   0.9788
   5.000   0.7200   0.00643   0.00209  -0.0395   0.2470   0.9926
   5.500   0.7888   0.00703   0.00244  -0.0427   0.1949   0.9966
   6.000   0.8534   0.00768   0.00285  -0.0450   0.1456   0.9996
   6.500   0.9010   0.00826   0.00324  -0.0436   0.1103   1.0000
   7.000   0.9463   0.00881   0.00364  -0.0416   0.0846   1.0000
   7.500   0.9932   0.00937   0.00409  -0.0400   0.0650   1.0000
   8.000   1.0420   0.00991   0.00455  -0.0388   0.0519   1.0000
   8.500   1.0912   0.01049   0.00506  -0.0377   0.0417   1.0000
   9.000   1.1407   0.01107   0.00559  -0.0368   0.0346   1.0000
   9.500   1.1896   0.01167   0.00616  -0.0358   0.0294   1.0000
  10.000   1.2384   0.01226   0.00674  -0.0349   0.0262   1.0000
  10.500   1.2863   0.01289   0.00738  -0.0338   0.0233   1.0000
  11.000   1.3324   0.01363   0.00812  -0.0325   0.0205   1.0000
  11.500   1.3782   0.01432   0.00883  -0.0312   0.0189   1.0000
  12.000   1.4209   0.01519   0.00972  -0.0294   0.0171   1.0000
  12.500   1.4635   0.01596   0.01052  -0.0277   0.0160   1.0000
  13.000   1.5010   0.01695   0.01154  -0.0252   0.0146   1.0000
  13.500   1.5331   0.01794   0.01259  -0.0218   0.0138   1.0000
  14.000   1.5635   0.01901   0.01373  -0.0185   0.0132   1.0000
  14.500   1.5904   0.02036   0.01514  -0.0150   0.0125   1.0000
  15.000   1.6105   0.02226   0.01713  -0.0113   0.0116   1.0000
