  
       XFOIL         Version 6.99
  
 Calculated polar for: NACA 0012                                       
  
 1 1 Reynolds number fixed          Mach number fixed         
  
 xtrf =   1.000 (top)        1.000 (bottom)  
 Mach =   0.000     Re =     1.521 e 6     Ncrit =   9.000
  
   alpha    CL        CD       CDp       CM     Top_Xtr  Bot_Xtr
  ------ -------- --------- --------- -------- -------- --------
 -12.000   0.0259   0.03549   0.03104  -0.1963   0.7701   0.0766
 -11.500   0.0778   0.03600   0.03159  -0.1964   0.7701   0.0928
 -11.000   0.1300   0.03649   0.03216  -0.1966   0.7701   0.1161
 -10.500   0.1821   0.03702   0.03276  -0.1967   0.7702   0.1431
 -10.000   0.2339   0.03757   0.03338  -0.1967   0.7702   0.1719
  -9.500   0.2876   0.03407   0.02996  -0.1971   0.7719   0.2041
  -9.000   0.3157   0.03508   0.03106  -0.1935   0.7725   0.2320
  -8.500   0.3433   0.03618   0.03222  -0.1897   0.7732   0.2570
  -8.000   0.3732   0.03724   0.03336  -0.1862   0.7740   0.2831
  -7.500   0.4151   0.03796   0.03416  -0.1844   0.7744   0.3106
  -7.000   0.4866   0.03785   0.03412  -0.1867   0.7731   0.3430
  -6.500   0.5635   0.03774   0.03411  -0.1897   0.7721   0.3740
  -6.000   0.6246   0.04169   0.03814  -0.1901   0.7702   0.3974
  -5.500   0.6690   0.04195   0.03847  -0.1884   0.7701   0.4179
  -5.000   0.7112   0.04196   0.03856  -0.1863   0.7699   0.4370
  -4.500   0.7490   0.03706   0.03370  -0.1824   0.7500   0.4545
  -4.000   1.2027   0.01073   0.00709  -0.2433   0.6850   0.5031
  -3.000   0.9714   0.02868   0.02448  -0.1881   0.5247   0.5079
  -2.500   0.9809   0.03082   0.02605  -0.1808   0.4084   0.5189
  -2.000   1.0108   0.03175   0.02656  -0.1764   0.3197   0.5298
  -1.500   1.0484   0.03219   0.02662  -0.1730   0.2440   0.5406
  -1.000   1.0871   0.03264   0.02678  -0.1699   0.1834   0.5509
  -0.500   1.1267   0.03312   0.02701  -0.1668   0.1361   0.5598
  -0.000   1.1678   0.03358   0.02731  -0.1640   0.1026   0.5695
