  
       XFOIL         Version 6.99
  
 Calculated polar for: NACA 2412                                       
  
 1 1 Reynolds number fixed          Mach number fixed         
  
 xtrf =   1.000 (top)        1.000 (bottom)  
 Mach =   0.000     Re =     1.521 e 6     Ncrit =   9.000
  
   alpha    CL        CD       CDp       CM     Top_Xtr  Bot_Xtr
  ------ -------- --------- --------- -------- -------- --------
 -15.000  -0.7699   0.01699   0.01219  -0.1420   0.7893   0.0161
 -14.500  -0.7178   0.01600   0.01108  -0.1429   0.7895   0.0167
 -14.000  -0.6668   0.01467   0.00961  -0.1437   0.7898   0.0177
 -13.500  -0.6132   0.01380   0.00867  -0.1445   0.7901   0.0188
 -13.000  -0.5584   0.01313   0.00793  -0.1452   0.7903   0.0199
 -12.500  -0.5039   0.01231   0.00702  -0.1459   0.7906   0.0214
 -12.000  -0.4482   0.01172   0.00638  -0.1466   0.7909   0.0231
 -11.500  -0.3920   0.01120   0.00579  -0.1473   0.7911   0.0246
 -11.000  -0.3358   0.01064   0.00521  -0.1479   0.7914   0.0274
 -10.500  -0.2789   0.01017   0.00471  -0.1486   0.7917   0.0302
 -10.000  -0.2216   0.00975   0.00428  -0.1493   0.7924   0.0333
  -9.500  -0.1642   0.00930   0.00383  -0.1499   0.7932   0.0381
  -9.000  -0.1064   0.00892   0.00347  -0.1506   0.7940   0.0440
  -8.500  -0.0485   0.00858   0.00316  -0.1513   0.7948   0.0516
  -8.000   0.0094   0.00829   0.00290  -0.1519   0.7944   0.0615
  -7.500   0.0671   0.00812   0.00275  -0.1525   0.7919   0.0744
  -7.000   0.1252   0.00780   0.00252  -0.1531   0.7910   0.0940
  -6.500   0.1834   0.00752   0.00232  -0.1537   0.7903   0.1170
  -6.000   0.2417   0.00725   0.00216  -0.1543   0.7895   0.1461
  -5.500   0.3000   0.00700   0.00204  -0.1549   0.7885   0.1806
  -5.000   0.3583   0.00677   0.00193  -0.1554   0.7871   0.2192
  -4.500   0.4167   0.00655   0.00184  -0.1559   0.7853   0.2606
  -4.000   0.4750   0.00634   0.00176  -0.1564   0.7830   0.3056
  -3.500   0.5333   0.00614   0.00169  -0.1569   0.7802   0.3530
  -3.000   0.5914   0.00602   0.00168  -0.1573   0.7763   0.4052
  -2.500   0.6490   0.00581   0.00166  -0.1575   0.7728   0.4647
  -2.000   0.7066   0.00562   0.00162  -0.1577   0.7675   0.5164
  -1.500   0.7638   0.00553   0.00159  -0.1578   0.7595   0.5549
  -1.000   0.8206   0.00539   0.00157  -0.1577   0.7481   0.5843
  -0.500   0.8599   0.00612   0.00182  -0.1541   0.6127   0.6056
  -0.000   0.9002   0.00698   0.00235  -0.1509   0.5289   0.6229
   0.500   0.9448   0.00756   0.00274  -0.1486   0.4758   0.6371
   1.000   0.9900   0.00810   0.00311  -0.1463   0.4327   0.6486
   1.500   1.0337   0.00866   0.00351  -0.1438   0.3909   0.6587
   2.000   1.0737   0.00934   0.00398  -0.1406   0.3420   0.6665
   2.500   1.1063   0.01010   0.00451  -0.1359   0.2910   0.6733
   3.000   1.1411   0.01104   0.00519  -0.1319   0.2350   0.6790
   3.500   1.1767   0.01208   0.00594  -0.1282   0.1812   0.6849
   4.000   1.2138   0.01309   0.00672  -0.1249   0.1359   0.6909
   4.500   1.2515   0.01408   0.00751  -0.1218   0.0998   0.6956
   5.000   1.2903   0.01501   0.00830  -0.1189   0.0751   0.7003
   5.500   1.3300   0.01586   0.00909  -0.1163   0.0588   0.7043
   6.000   1.3686   0.01677   0.00995  -0.1135   0.0468   0.7084
   6.500   1.4070   0.01770   0.01086  -0.1108   0.0384   0.7126
   7.000   1.4447   0.01865   0.01183  -0.1080   0.0330   0.7167
   7.500   1.4820   0.01965   0.01285  -0.1053   0.0289   0.7209
   8.000   1.5174   0.02075   0.01401  -0.1023   0.0257   0.7257
   8.500   1.5507   0.02201   0.01530  -0.0991   0.0228   0.7308
   9.000   1.5844   0.02321   0.01661  -0.0961   0.0211   0.7394
   9.500   1.6115   0.02425   0.01814  -0.0921   0.0191   0.9968
  10.000   1.6413   0.02576   0.01973  -0.0888   0.0179   0.9999
  10.500   1.6686   0.02742   0.02145  -0.0853   0.0167   0.9999
  11.000   1.6889   0.02963   0.02374  -0.0811   0.0153   0.9999
  11.500   1.7134   0.03153   0.02574  -0.0776   0.0147   0.9999
  12.000   1.7354   0.03365   0.02796  -0.0740   0.0140   0.9999
  12.500   1.7528   0.03622   0.03061  -0.0702   0.0132   0.9999
  13.000   1.7595   0.03977   0.03429  -0.0658   0.0123   0.9999
  13.500   1.7750   0.04272   0.03737  -0.0624   0.0120   0.9999
  14.000   1.7860   0.04619   0.04097  -0.0592   0.0116   0.9999
  14.500   1.7932   0.05022   0.04514  -0.0561   0.0112   0.9999
  15.000   1.7963   0.05496   0.05002  -0.0535   0.0109   0.9999
  15.500   1.7916   0.06104   0.05627  -0.0517   0.0105   0.9999
  16.000   1.7762   0.06914   0.06458  -0.0512   0.0101   0.9999
  16.500   1.7516   0.07909   0.07478  -0.0521   0.0098   0.9999
  17.000   1.7381   0.08773   0.08363  -0.0536   0.0097   0.9999
  17.500   1.7178   0.09762   0.09373  -0.0560   0.0096   0.9999
  18.000   1.6899   0.10890   0.10525  -0.0597   0.0095   0.9999
  18.500   1.6616   0.12065   0.11722  -0.0643   0.0093   0.9999
  19.000   1.6298   0.13333   0.13013  -0.0702   0.0092   0.9999
  19.500   1.5981   0.14652   0.14354  -0.0773   0.0091   0.9999
  20.000   1.5680   0.15990   0.15713  -0.0853   0.0090   0.9999
  20.500   1.5394   0.17335   0.17078  -0.0941   0.0089   0.9999
  21.000   1.5131   0.18692   0.18454  -0.1037   0.0088   0.9999
  21.500   1.4893   0.20047   0.19826  -0.1138   0.0086   0.9999
  22.000   1.4687   0.21379   0.21175  -0.1242   0.0085   0.9999
  22.500   1.4531   0.22623   0.22432  -0.1342   0.0083   0.9999
  23.000   1.4404   0.23810   0.23629  -0.1440   0.0080   0.9999
  23.500   1.4272   0.25058   0.24891  -0.1545   0.0077   0.9999
  24.000   1.4165   0.26305   0.26153  -0.1650   0.0076   0.9999
  25.000   1.3233   0.35159   0.35045  -0.2222   0.0047   0.9999
