  
       XFOIL         Version 6.99
  
 Calculated polar for: NACA 2412                                       
  
 1 1 Reynolds number fixed          Mach number fixed         
  
 xtrf =   1.000 (top)        1.000 (bottom)  
 Mach =   0.000     Re =     2.332 e 6     Ncrit =   9.000
  
   alpha    CL        CD       CDp       CM     Top_Xtr  Bot_Xtr
  ------ -------- --------- --------- -------- -------- --------
  -5.000  -1.2133   0.01477   0.00860   0.0728   0.6459   0.0181
  -4.500  -1.1668   0.01409   0.00789   0.0747   0.6402   0.0201
  -4.000  -1.1195   0.01353   0.00732   0.0765   0.6344   0.0217
  -3.500  -1.0722   0.01295   0.00672   0.0783   0.6270   0.0240
  -3.000  -1.0242   0.01246   0.00623   0.0801   0.6204   0.0263
  -2.500  -0.9766   0.01192   0.00570   0.0819   0.6117   0.0303
  -2.000  -0.9289   0.01144   0.00523   0.0837   0.6035   0.0344
  -1.500  -0.8822   0.01101   0.00479   0.0857   0.5930   0.0399
  -1.000  -0.8378   0.01060   0.00442   0.0882   0.5836   0.0467
  -0.500  -0.7905   0.01019   0.00403   0.0902   0.5725   0.0567
   0.000  -0.7425   0.00978   0.00368   0.0919   0.5604   0.0701
   0.500  -0.6940   0.00939   0.00335   0.0936   0.5487   0.0872
   1.000  -0.6460   0.00899   0.00304   0.0954   0.5361   0.1116
   1.500  -0.5976   0.00860   0.00274   0.0970   0.5225   0.1429
   2.000  -0.5498   0.00817   0.00246   0.0988   0.5095   0.1876
   2.500  -0.5015   0.00774   0.00221   0.1004   0.4969   0.2408
   3.000  -0.4537   0.00726   0.00196   0.1021   0.4840   0.3134
   3.500  -0.4104   0.00646   0.00161   0.1045   0.4709   0.4539
   5.500  -0.1945   0.00584   0.00174   0.1064   0.4156   0.7440
   6.000  -0.1355   0.00613   0.00199   0.1060   0.3984   0.7471
   6.500  -0.0763   0.00647   0.00228   0.1054   0.3774   0.7487
   7.000  -0.0194   0.00638   0.00209   0.1051   0.3535   0.7524
   7.500   0.0391   0.00672   0.00244   0.1046   0.3278   0.7580
   8.000   0.0972   0.00696   0.00259   0.1041   0.2987   0.7592
   8.500   0.1549   0.00714   0.00265   0.1034   0.2653   0.7583
   9.000   0.2123   0.00738   0.00275   0.1028   0.2288   0.7575
   9.500   0.2693   0.00769   0.00291   0.1021   0.1904   0.7567
  10.000   0.3262   0.00803   0.00310   0.1015   0.1546   0.7560
  10.500   0.3826   0.00843   0.00336   0.1008   0.1207   0.7552
  11.000   0.4388   0.00887   0.00366   0.1001   0.0929   0.7545
  11.500   0.4949   0.00930   0.00399   0.0995   0.0724   0.7538
  12.000   0.5506   0.00977   0.00438   0.0988   0.0569   0.7532
  12.500   0.6062   0.01024   0.00480   0.0981   0.0462   0.7525
  13.000   0.6616   0.01072   0.00526   0.0974   0.0388   0.7520
  13.500   0.7164   0.01125   0.00577   0.0968   0.0328   0.7514
  14.000   0.7707   0.01185   0.00636   0.0961   0.0281   0.7509
  14.500   0.8249   0.01241   0.00694   0.0954   0.0254   0.7505
  15.000   0.8782   0.01306   0.00762   0.0947   0.0227   0.7500
