  
       XFOIL         Version 6.99
  
 Calculated polar for: NACA 0012                                       
  
 1 1 Reynolds number fixed          Mach number fixed         
  
 xtrf =   1.000 (top)        1.000 (bottom)  
 Mach =   0.000     Re =     1.521 e 6     Ncrit =   9.000
  
   alpha    CL        CD       CDp       CM     Top_Xtr  Bot_Xtr
  ------ -------- --------- --------- -------- -------- --------
 -12.000  -0.0740   0.02359   0.01895  -0.1862   0.7859   0.0619
 -11.500  -0.0244   0.02406   0.01945  -0.1859   0.7860   0.0745
 -11.000   0.0257   0.02448   0.01994  -0.1857   0.7860   0.0928
 -10.000   0.1264   0.02539   0.02100  -0.1852   0.7861   0.1409
  -9.500   0.1771   0.02586   0.02157  -0.1849   0.7862   0.1714
  -9.000   0.2277   0.02636   0.02217  -0.1846   0.7862   0.2040
  -8.500   0.2785   0.02689   0.02280  -0.1842   0.7863   0.2382
  -8.000   0.3293   0.02745   0.02345  -0.1837   0.7863   0.2706
  -7.500   0.3809   0.02463   0.02074  -0.1835   0.7883   0.3027
  -7.000   0.4498   0.02446   0.02066  -0.1858   0.7881   0.3363
  -6.500   0.4639   0.02900   0.02527  -0.1792   0.7862   0.3580
  -6.000   0.4925   0.02994   0.02627  -0.1751   0.7860   0.3790
  -5.500   0.5264   0.03007   0.02646  -0.1719   0.7854   0.4014
  -5.000   0.8223   0.01147   0.00749  -0.2067   0.7407   0.4553
  -4.500   0.8924   0.00979   0.00582  -0.2089   0.7372   0.4758
  -4.000   0.9628   0.00822   0.00422  -0.2113   0.7371   0.4937
  -3.500   1.0251   0.00719   0.00315  -0.2120   0.7305   0.5102
  -3.000   1.0284   0.00855   0.00400  -0.2013   0.5540   0.5214
  -2.500   0.9841   0.01215   0.00730  -0.1829   0.4541   0.5299
  -2.000   0.9668   0.01697   0.01186  -0.1723   0.3775   0.5392
  -1.500   0.9769   0.01931   0.01394  -0.1650   0.3097   0.5499
  -1.000   1.0000   0.02073   0.01507  -0.1595   0.2479   0.5603
  -0.500   1.0301   0.02175   0.01585  -0.1550   0.1915   0.5706
  -0.000   1.0651   0.02256   0.01643  -0.1513   0.1455   0.5799
