  
       XFOIL         Version 6.99
  
 Calculated polar for: NACA 0012                                       
  
 1 1 Reynolds number fixed          Mach number fixed         
  
 xtrf =   1.000 (top)        1.000 (bottom)  
 Mach =   0.000     Re =     2.332 e 6     Ncrit =   9.000
  
   alpha    CL        CD       CDp       CM     Top_Xtr  Bot_Xtr
  ------ -------- --------- --------- -------- -------- --------
 -12.000  -0.5364   0.01000   0.00467  -0.1175   0.7654   0.0290
 -11.500  -0.4801   0.00960   0.00426  -0.1181   0.7660   0.0326
 -11.000  -0.4236   0.00922   0.00390  -0.1187   0.7665   0.0374
 -10.500  -0.3668   0.00887   0.00356  -0.1193   0.7671   0.0436
 -10.000  -0.3098   0.00852   0.00326  -0.1199   0.7676   0.0529
  -9.500  -0.2527   0.00819   0.00300  -0.1206   0.7681   0.0648
  -9.000  -0.1952   0.00791   0.00278  -0.1212   0.7686   0.0796
  -8.500  -0.1378   0.00761   0.00258  -0.1218   0.7691   0.1017
  -8.000  -0.0802   0.00735   0.00243  -0.1225   0.7694   0.1282
  -7.500  -0.0224   0.00712   0.00233  -0.1231   0.7697   0.1599
  -7.000   0.0355   0.00688   0.00222  -0.1237   0.7698   0.1943
  -6.500   0.0941   0.00645   0.00189  -0.1243   0.7682   0.2305
  -6.000   0.1524   0.00611   0.00167  -0.1248   0.7656   0.2688
  -5.500   0.2108   0.00584   0.00152  -0.1253   0.7632   0.3068
  -5.000   0.2692   0.00563   0.00139  -0.1257   0.7607   0.3426
  -4.500   0.3275   0.00546   0.00131  -0.1261   0.7577   0.3757
  -4.000   0.3857   0.00540   0.00133  -0.1265   0.7538   0.4072
  -3.500   0.4443   0.00518   0.00121  -0.1269   0.7511   0.4351
  -3.000   0.5028   0.00499   0.00112  -0.1272   0.7463   0.4633
  -2.500   0.5607   0.00488   0.00106  -0.1274   0.7380   0.4874
  -2.000   0.6069   0.00555   0.00130  -0.1254   0.5886   0.5097
  -1.500   0.6488   0.00649   0.00176  -0.1226   0.4529   0.5294
  -1.000   0.6943   0.00711   0.00209  -0.1205   0.3683   0.5479
  -0.500   0.7402   0.00768   0.00243  -0.1185   0.2994   0.5649
  -0.000   0.7860   0.00824   0.00277  -0.1164   0.2396   0.5802
