  
       XFOIL         Version 6.99
  
 Calculated polar for: NACA 2412                                       
  
 1 1 Reynolds number fixed          Mach number fixed         
  
 xtrf =   1.000 (top)        1.000 (bottom)  
 Mach =   0.000     Re =     1.521 e 6     Ncrit =   9.000
  
   alpha    CL        CD       CDp       CM     Top_Xtr  Bot_Xtr
  ------ -------- --------- --------- -------- -------- --------
 -15.000  -0.1126   0.02956   0.02546  -0.2309   0.7774   0.0246
 -14.500  -0.0703   0.03036   0.02618  -0.2309   0.7773   0.0266
 -14.000  -0.0263   0.03113   0.02689  -0.2306   0.7774   0.0286
 -13.500   0.0171   0.03185   0.02754  -0.2301   0.7775   0.0311
 -13.000   0.0571   0.03269   0.02837  -0.2289   0.7776   0.0340
 -12.500   0.0972   0.03349   0.02914  -0.2275   0.7777   0.0377
 -12.000   0.1356   0.03438   0.02999  -0.2257   0.7779   0.0409
 -11.500   0.1750   0.03519   0.03081  -0.2241   0.7782   0.0469
 -11.000   0.2134   0.03606   0.03168  -0.2222   0.7785   0.0533
 -10.500   0.2510   0.03696   0.03259  -0.2200   0.7788   0.0610
 -10.000   0.2891   0.03786   0.03351  -0.2180   0.7793   0.0715
  -9.500   0.3285   0.03871   0.03441  -0.2160   0.7797   0.0849
  -9.000   0.3769   0.03928   0.03503  -0.2153   0.7797   0.1021
  -8.500   0.4292   0.03972   0.03553  -0.2151   0.7795   0.1249
  -8.000   0.4782   0.04029   0.03618  -0.2144   0.7794   0.1495
  -7.500   0.5286   0.04082   0.03680  -0.2139   0.7792   0.1804
  -7.000   0.5795   0.04135   0.03741  -0.2134   0.7791   0.2112
  -6.500   0.6323   0.04182   0.03798  -0.2132   0.7788   0.2463
  -6.000   0.6887   0.04221   0.03846  -0.2133   0.7784   0.2801
  -5.500   0.7520   0.04243   0.03878  -0.2145   0.7778   0.3179
  -5.000   0.8253   0.04258   0.03904  -0.2171   0.7771   0.3576
  -4.500   0.8750   0.04611   0.04268  -0.2160   0.7756   0.3887
  -4.000   0.9130   0.04614   0.04280  -0.2133   0.7754   0.4201
  -3.500   0.9529   0.04073   0.03747  -0.2097   0.7535   0.4519
  -3.000   1.0649   0.03581   0.03263  -0.2168   0.7435   0.4923
  -2.500   1.4721   0.00991   0.00606  -0.2714   0.6508   0.5446
  -2.000   1.2534   0.02742   0.02385  -0.2276   0.6223   0.5400
  -1.500   1.1930   0.03440   0.03025  -0.2099   0.5169   0.5462
  -0.500   1.2559   0.03656   0.03187  -0.2018   0.4082   0.5684
  -0.000   1.2912   0.03736   0.03241  -0.1984   0.3526   0.5786
   0.500   1.3265   0.03807   0.03278  -0.1948   0.2907   0.5868
   1.000   1.3627   0.03860   0.03295  -0.1914   0.2242   0.5951
   1.500   1.3999   0.03906   0.03307  -0.1880   0.1654   0.6024
   2.000   1.4357   0.03976   0.03348  -0.1845   0.1174   0.6086
   2.500   1.4725   0.04052   0.03406  -0.1813   0.0859   0.6143
   3.000   1.5091   0.04132   0.03473  -0.1781   0.0641   0.6200
   3.500   1.5457   0.04218   0.03549  -0.1749   0.0497   0.6248
   4.000   1.5816   0.04312   0.03639  -0.1716   0.0399   0.6289
   4.500   1.6170   0.04412   0.03736  -0.1684   0.0334   0.6333
   5.000   1.6519   0.04518   0.03842  -0.1651   0.0288   0.6376
   5.500   1.6859   0.04631   0.03958  -0.1618   0.0254   0.6407
   6.000   1.7171   0.04763   0.04091  -0.1581   0.0223   0.6429
   6.500   1.7490   0.04894   0.04228  -0.1547   0.0204   0.6452
   7.000   1.7761   0.05064   0.04402  -0.1506   0.0182   0.6480
   7.500   1.8038   0.05234   0.04579  -0.1468   0.0171   0.6516
   8.000   1.8281   0.05427   0.04777  -0.1427   0.0156   0.6541
   8.500   1.8512   0.05633   0.04993  -0.1384   0.0146   0.6555
   9.000   1.8748   0.05837   0.05207  -0.1345   0.0138   0.6569
   9.500   1.8921   0.06102   0.05480  -0.1300   0.0128   0.6585
  10.000   1.9034   0.06423   0.05813  -0.1250   0.0119   0.6604
  10.500   1.9205   0.06697   0.06100  -0.1209   0.0115   0.6631
  11.000   1.9312   0.07044   0.06460  -0.1164   0.0111   0.6660
  11.500   1.9415   0.07398   0.06826  -0.1123   0.0106   0.6670
  12.000   1.9438   0.07850   0.07293  -0.1080   0.0101   0.6680
  12.500   1.9350   0.08450   0.07910  -0.1037   0.0096   0.6693
  13.000   1.9267   0.09090   0.08571  -0.1005   0.0093   0.6708
  13.500   1.9229   0.09707   0.09207  -0.0985   0.0091   0.6725
  14.000   1.9152   0.10400   0.09919  -0.0973   0.0089   0.6742
  14.500   1.9044   0.11156   0.10695  -0.0972   0.0087   0.6760
  15.000   1.8920   0.11953   0.11512  -0.0981   0.0085   0.6767
  15.500   1.8770   0.12810   0.12389  -0.1001   0.0083   0.6776
  16.000   1.8592   0.13734   0.13333  -0.1034   0.0081   0.6785
  16.500   1.8389   0.14718   0.14338  -0.1079   0.0079   0.6795
  17.000   1.8159   0.15788   0.15428  -0.1139   0.0078   0.6805
  17.500   1.7894   0.16965   0.16628  -0.1216   0.0076   0.6813
  18.000   1.7599   0.18249   0.17934  -0.1310   0.0075   0.6820
  18.500   1.7273   0.19651   0.19360  -0.1423   0.0073   0.6826
  19.000   1.7005   0.20966   0.20696  -0.1534   0.0072   0.6834
  19.500   1.6821   0.22135   0.21883  -0.1636   0.0071   0.6842
  20.000   1.6667   0.23261   0.23027  -0.1737   0.0071   0.6848
  20.500   1.6495   0.24477   0.24261  -0.1849   0.0070   0.6852
  21.000   1.6355   0.25641   0.25442  -0.1959   0.0069   0.6858
  21.500   1.6229   0.26805   0.26621  -0.2071   0.0067   0.6865
  22.000   1.6101   0.28020   0.27852  -0.2189   0.0066   0.6872
  22.500   1.5918   0.29534   0.29384  -0.2336   0.0063   0.6875
  23.000   0.9168   0.34833   0.34728  -0.1734   0.0041   0.6764
  23.500   0.9180   0.35297   0.35194  -0.1750   0.0039   0.6774
  24.000   0.9185   0.35812   0.35711  -0.1765   0.0038   0.6786
  25.000   0.9167   0.37669   0.37571  -0.1807   0.0029   0.6813
