  
       XFOIL         Version 6.99
  
 Calculated polar for: NACA 2412                                       
  
 1 1 Reynolds number fixed          Mach number fixed         
  
 xtrf =   1.000 (top)        1.000 (bottom)  
 Mach =   0.000     Re =     1.521 e 6     Ncrit =   9.000
  
   alpha    CL        CD       CDp       CM     Top_Xtr  Bot_Xtr
  ------ -------- --------- --------- -------- -------- --------
 -15.000  -1.5707   0.07727   0.07356   0.0121   0.7073   0.0097
 -14.500  -1.6218   0.06171   0.05762   0.0057   0.7065   0.0097
 -14.000  -1.6537   0.05299   0.04862   0.0074   0.7054   0.0099
 -13.500  -1.6682   0.04714   0.04254   0.0111   0.7041   0.0101
 -13.000  -1.6717   0.04277   0.03800   0.0154   0.7023   0.0103
 -12.500  -1.6663   0.03936   0.03442   0.0198   0.7002   0.0106
 -12.000  -1.6551   0.03650   0.03139   0.0241   0.6985   0.0109
 -11.500  -1.6401   0.03396   0.02871   0.0285   0.6963   0.0112
 -11.000  -1.6206   0.03177   0.02636   0.0327   0.6938   0.0115
 -10.500  -1.5973   0.02987   0.02431   0.0367   0.6917   0.0117
 -10.000  -1.5696   0.02828   0.02258   0.0404   0.6895   0.0120
  -9.500  -1.5496   0.02593   0.02006   0.0452   0.6867   0.0126
  -9.000  -1.5180   0.02447   0.01852   0.0487   0.6840   0.0133
  -8.500  -1.4826   0.02328   0.01724   0.0518   0.6820   0.0139
  -8.000  -1.4455   0.02216   0.01602   0.0547   0.6790   0.0145
  -7.500  -1.4060   0.02118   0.01496   0.0575   0.6754   0.0149
  -7.000  -1.3683   0.01978   0.01347   0.0605   0.6725   0.0160
  -6.500  -1.3262   0.01887   0.01250   0.0629   0.6697   0.0170
  -6.000  -1.2824   0.01807   0.01165   0.0651   0.6655   0.0179
  -5.500  -1.2384   0.01715   0.01067   0.0673   0.6615   0.0194
  -5.000  -1.1929   0.01639   0.00988   0.0694   0.6575   0.0209
  -4.500  -1.1465   0.01576   0.00920   0.0712   0.6528   0.0221
  -4.000  -1.1002   0.01495   0.00840   0.0732   0.6472   0.0248
  -3.500  -1.0528   0.01438   0.00777   0.0749   0.6412   0.0270
  -3.000  -1.0056   0.01372   0.00714   0.0768   0.6348   0.0305
  -2.500  -0.9582   0.01313   0.00654   0.0786   0.6275   0.0345
  -2.000  -0.9105   0.01259   0.00600   0.0803   0.6197   0.0396
  -1.500  -0.8630   0.01207   0.00548   0.0821   0.6108   0.0460
  -1.000  -0.8163   0.01155   0.00501   0.0841   0.6016   0.0554
  -0.500  -0.7724   0.01107   0.00457   0.0867   0.5911   0.0681
  -0.000  -0.7283   0.01061   0.00418   0.0892   0.5806   0.0844
   0.500  -0.6825   0.01013   0.00379   0.0914   0.5693   0.1085
   1.000  -0.6365   0.00966   0.00343   0.0935   0.5568   0.1402
   1.500  -0.5911   0.00916   0.00308   0.0957   0.5445   0.1834
   2.000  -0.5456   0.00865   0.00276   0.0979   0.5321   0.2387
   2.500  -0.5009   0.00808   0.00244   0.1001   0.5192   0.3140
   3.000  -0.4630   0.00707   0.00197   0.1036   0.5060   0.4678
   3.500  -0.4263   0.00586   0.00155   0.1073   0.4941   0.7328
   4.000  -0.3681   0.00612   0.00180   0.1072   0.4807   0.7419
   4.500  -0.3094   0.00653   0.00215   0.1069   0.4669   0.7481
   5.000  -0.2516   0.00661   0.00221   0.1068   0.4525   0.7544
   5.500  -0.1928   0.00691   0.00249   0.1065   0.4372   0.7593
   6.000  -0.1341   0.00720   0.00274   0.1061   0.4207   0.7626
   6.500  -0.0752   0.00753   0.00302   0.1056   0.4031   0.7651
   7.000  -0.0183   0.00747   0.00297   0.1055   0.3831   0.7712
   7.500   0.0398   0.00769   0.00313   0.1050   0.3585   0.7731
   8.000   0.0976   0.00776   0.00311   0.1044   0.3316   0.7718
   8.500   0.1552   0.00790   0.00313   0.1038   0.3004   0.7706
   9.000   0.2126   0.00812   0.00322   0.1031   0.2654   0.7695
   9.500   0.2697   0.00845   0.00339   0.1024   0.2264   0.7684
  10.000   0.3265   0.00886   0.00366   0.1017   0.1874   0.7674
  10.500   0.3829   0.00939   0.00403   0.1010   0.1473   0.7665
  11.000   0.4390   0.00996   0.00447   0.1004   0.1135   0.7658
  11.500   0.4949   0.01057   0.00498   0.0997   0.0869   0.7651
  12.000   0.5503   0.01120   0.00552   0.0990   0.0670   0.7645
  12.500   0.6050   0.01162   0.00590   0.0984   0.0540   0.7642
  13.000   0.6594   0.01210   0.00635   0.0977   0.0445   0.7639
  13.500   0.7133   0.01264   0.00688   0.0971   0.0377   0.7635
  14.000   0.7667   0.01324   0.00748   0.0965   0.0324   0.7631
  14.500   0.8191   0.01398   0.00823   0.0958   0.0281   0.7626
  15.000   0.8718   0.01460   0.00890   0.0951   0.0257   0.7622
  15.500   0.9226   0.01549   0.00983   0.0944   0.0230   0.7617
  16.000   0.9733   0.01631   0.01072   0.0936   0.0212   0.7612
  16.500   1.0209   0.01758   0.01205   0.0927   0.0193   0.7607
  17.000   1.0695   0.01865   0.01322   0.0916   0.0182   0.7602
  17.500   1.1152   0.02020   0.01484   0.0900   0.0170   0.7597
  18.000   1.1555   0.02274   0.01751   0.0870   0.0158   0.7592
  18.500   1.1918   0.02565   0.02056   0.0831   0.0151   0.7587
  19.000   1.2037   0.03009   0.02513   0.0796   0.0146   0.7581
  19.500   1.2115   0.03492   0.03006   0.0769   0.0141   0.7575
  20.000   1.2093   0.04083   0.03609   0.0740   0.0137   0.7569
  20.500   1.1940   0.04848   0.04390   0.0703   0.0132   0.7563
  21.000   1.1686   0.05793   0.05353   0.0658   0.0129   0.7558
  21.500   1.1564   0.06608   0.06183   0.0617   0.0128   0.7553
  22.000   1.1379   0.07543   0.07135   0.0571   0.0127   0.7548
  22.500   1.1138   0.08588   0.08197   0.0519   0.0125   0.7544
  23.000   1.0861   0.09722   0.09347   0.0463   0.0124   0.7540
  23.500   1.0562   0.10930   0.10572   0.0403   0.0123   0.7536
  24.000   1.0270   0.12171   0.11828   0.0340   0.0121   0.7533
  24.500   1.0029   0.13362   0.13033   0.0277   0.0119   0.7529
  25.000   0.9789   0.14598   0.14282   0.0210   0.0117   0.7526
