  
       XFOIL         Version 6.99
  
 Calculated polar for: NACA 2412                                       
  
 1 1 Reynolds number fixed          Mach number fixed         
  
 xtrf =   1.000 (top)        1.000 (bottom)  
 Mach =   0.000     Re =     2.332 e 6     Ncrit =   9.000
  
   alpha    CL        CD       CDp       CM     Top_Xtr  Bot_Xtr
  ------ -------- --------- --------- -------- -------- --------
 -15.000  -0.6409   0.01340   0.00861  -0.1627   0.7661   0.0154
 -14.500  -0.5864   0.01254   0.00770  -0.1637   0.7665   0.0165
 -14.000  -0.5307   0.01193   0.00703  -0.1647   0.7670   0.0174
 -13.500  -0.4744   0.01144   0.00650  -0.1655   0.7675   0.0181
 -13.000  -0.4186   0.01073   0.00575  -0.1664   0.7680   0.0199
 -12.500  -0.3617   0.01031   0.00529  -0.1673   0.7685   0.0213
 -12.000  -0.3047   0.00982   0.00477  -0.1681   0.7691   0.0234
 -11.500  -0.2473   0.00945   0.00440  -0.1689   0.7696   0.0254
 -11.000  -0.1898   0.00906   0.00400  -0.1697   0.7702   0.0284
 -10.500  -0.1319   0.00876   0.00369  -0.1705   0.7707   0.0314
 -10.000  -0.0739   0.00847   0.00342  -0.1713   0.7713   0.0355
  -9.500  -0.0158   0.00819   0.00317  -0.1721   0.7718   0.0413
  -9.000   0.0425   0.00794   0.00295  -0.1728   0.7721   0.0484
  -8.500   0.1008   0.00766   0.00270  -0.1735   0.7714   0.0573
  -8.000   0.1593   0.00737   0.00245  -0.1742   0.7703   0.0699
  -7.500   0.2178   0.00710   0.00226  -0.1749   0.7694   0.0870
  -7.000   0.2764   0.00687   0.00210  -0.1756   0.7687   0.1071
  -6.500   0.3350   0.00664   0.00195  -0.1763   0.7676   0.1323
  -6.000   0.3937   0.00642   0.00182  -0.1769   0.7666   0.1627
  -5.500   0.4524   0.00622   0.00172  -0.1776   0.7653   0.1962
  -5.000   0.5109   0.00603   0.00163  -0.1781   0.7636   0.2326
  -4.500   0.5694   0.00591   0.00161  -0.1787   0.7613   0.2719
  -4.000   0.6277   0.00582   0.00164  -0.1792   0.7588   0.3126
  -3.500   0.6862   0.00559   0.00153  -0.1797   0.7571   0.3541
  -3.000   0.7444   0.00536   0.00144  -0.1801   0.7539   0.3993
  -2.500   0.8024   0.00514   0.00135  -0.1804   0.7491   0.4519
  -2.000   0.8598   0.00503   0.00133  -0.1806   0.7425   0.4956
  -1.500   0.9101   0.00520   0.00133  -0.1793   0.6605   0.5297
  -1.000   0.9404   0.00654   0.00215  -0.1741   0.5256   0.5541
  -0.500   0.9827   0.00715   0.00256  -0.1713   0.4678   0.5759
  -0.000   1.0254   0.00767   0.00294  -0.1686   0.4241   0.5935
   0.500   1.0650   0.00825   0.00336  -0.1652   0.3805   0.6081
   1.000   1.0944   0.00893   0.00387  -0.1597   0.3334   0.6199
   1.500   1.1272   0.00978   0.00453  -0.1552   0.2848   0.6311
   2.000   1.1589   0.01081   0.00531  -0.1507   0.2314   0.6400
   2.500   1.1928   0.01184   0.00611  -0.1468   0.1815   0.6483
   3.000   1.2280   0.01288   0.00692  -0.1431   0.1369   0.6550
   3.500   1.2656   0.01385   0.00772  -0.1400   0.1028   0.6613
   4.000   1.3043   0.01477   0.00850  -0.1370   0.0783   0.6670
   4.500   1.3432   0.01570   0.00933  -0.1342   0.0598   0.6719
   5.000   1.3827   0.01658   0.01014  -0.1315   0.0484   0.6760
   5.500   1.4219   0.01749   0.01099  -0.1288   0.0393   0.6791
   6.000   1.4605   0.01843   0.01190  -0.1260   0.0332   0.6817
   6.500   1.4987   0.01937   0.01284  -0.1233   0.0286   0.6844
   7.000   1.5357   0.02039   0.01385  -0.1204   0.0250   0.6875
   7.500   1.5711   0.02151   0.01498  -0.1173   0.0217   0.6896
   8.000   1.6072   0.02255   0.01605  -0.1145   0.0201   0.6920
   8.500   1.6393   0.02386   0.01738  -0.1111   0.0178   0.6945
   9.000   1.6731   0.02506   0.01862  -0.1081   0.0167   0.6969
   9.500   1.7023   0.02652   0.02012  -0.1045   0.0152   0.6988
  10.000   1.7319   0.02799   0.02166  -0.1011   0.0142   0.7012
  10.500   1.7595   0.02960   0.02333  -0.0976   0.0134   0.7033
  11.000   1.7843   0.03143   0.02522  -0.0939   0.0125   0.7053
  11.500   1.8064   0.03350   0.02739  -0.0900   0.0117   0.7073
  12.000   1.8294   0.03552   0.02951  -0.0864   0.0112   0.7091
  12.500   1.8503   0.03776   0.03183  -0.0827   0.0107   0.7107
  13.000   1.8664   0.04046   0.03462  -0.0788   0.0102   0.7127
  13.500   1.8764   0.04377   0.03805  -0.0746   0.0095   0.7145
  14.000   1.8877   0.04708   0.04149  -0.0709   0.0092   0.7160
  14.500   1.8993   0.05051   0.04505  -0.0676   0.0090   0.7179
  15.000   1.9062   0.05455   0.04921  -0.0644   0.0088   0.7196
  16.000   1.9062   0.06502   0.05999  -0.0596   0.0083   0.7228
  16.500   1.8995   0.07174   0.06687  -0.0585   0.0080   0.7247
  17.000   1.8847   0.07986   0.07518  -0.0584   0.0077   0.7270
  17.500   1.8602   0.08974   0.08529  -0.0596   0.0074   0.7293
  18.000   1.8246   0.10152   0.09733  -0.0623   0.0072   0.7311
  19.500   1.7402   0.13513   0.13199  -0.0753   0.0071   0.9998
  20.000   1.7076   0.14799   0.14507  -0.0823   0.0070   0.9998
  20.500   1.6741   0.16147   0.15877  -0.0906   0.0070   0.9998
  21.000   1.6380   0.17597   0.17350  -0.1005   0.0070   0.9998
  21.500   1.6025   0.19110   0.18884  -0.1117   0.0069   0.9998
  22.000   1.5683   0.20668   0.20463  -0.1240   0.0068   0.9998
  22.500   1.5374   0.22217   0.22032  -0.1367   0.0068   0.9998
  23.000   1.5107   0.23727   0.23560  -0.1495   0.0067   0.9998
  23.500   1.4940   0.25028   0.24874  -0.1607   0.0065   0.9998
  24.000   1.4816   0.26254   0.26112  -0.1714   0.0063   0.9998
  24.500   1.4721   0.27429   0.27297  -0.1818   0.0061   0.9998
  25.000   1.4649   0.28567   0.28443  -0.1919   0.0059   0.9998
