  
       XFOIL         Version 6.99
  
 Calculated polar for: NACA 0012                                       
  
 1 1 Reynolds number fixed          Mach number fixed         
  
 xtrf =   1.000 (top)        1.000 (bottom)  
 Mach =   0.000     Re =     2.332 e 6     Ncrit =   9.000
  
   alpha    CL        CD       CDp       CM     Top_Xtr  Bot_Xtr
  ------ -------- --------- --------- -------- -------- --------
 -12.000   0.1428   0.02021   0.01609  -0.2153   0.7583   0.0798
 -11.500   0.1726   0.02137   0.01732  -0.2116   0.7584   0.0940
 -11.000   0.1476   0.02533   0.02133  -0.1996   0.7582   0.1017
 -10.500   0.1699   0.02734   0.02339  -0.1954   0.7585   0.1188
 -10.000   0.1987   0.02888   0.02499  -0.1921   0.7591   0.1391
  -9.500   0.2295   0.03027   0.02645  -0.1890   0.7598   0.1631
  -9.000   0.2644   0.03146   0.02772  -0.1864   0.7607   0.1881
  -8.500   0.3033   0.03249   0.02884  -0.1843   0.7619   0.2168
  -8.000   0.3482   0.03321   0.02964  -0.1830   0.7626   0.2461
  -7.500   0.4078   0.03304   0.02957  -0.1836   0.7608   0.2785
  -7.000   0.4810   0.03227   0.02889  -0.1859   0.7590   0.3129
  -6.500   0.6194   0.02849   0.02523  -0.1969   0.7561   0.3552
  -6.000   0.9155   0.01165   0.00804  -0.2355   0.7309   0.4100
  -5.500   0.9946   0.00924   0.00559  -0.2396   0.7277   0.4312
  -5.000   1.0676   0.00755   0.00387  -0.2426   0.7267   0.4507
  -4.500   1.1273   0.00728   0.00371  -0.2433   0.7199   0.4670
  -4.000   1.0541   0.01082   0.00641  -0.2179   0.5011   0.4737
  -3.500   0.9772   0.02033   0.01594  -0.1985   0.4524   0.4789
  -3.000   0.9600   0.02421   0.01956  -0.1872   0.3836   0.4883
  -2.500   0.9765   0.02598   0.02098  -0.1808   0.3069   0.4999
  -2.000   1.0080   0.02698   0.02175  -0.1767   0.2476   0.5128
  -1.500   1.0429   0.02775   0.02225  -0.1730   0.1899   0.5241
  -1.000   1.0822   0.02827   0.02257  -0.1700   0.1458   0.5352
  -0.500   1.1228   0.02874   0.02286  -0.1671   0.1096   0.5462
  -0.000   1.1636   0.02928   0.02325  -0.1643   0.0834   0.5548
