  
       XFOIL         Version 6.99
  
 Calculated polar for: NACA 2412                                       
  
 1 1 Reynolds number fixed          Mach number fixed         
  
 xtrf =   1.000 (top)        1.000 (bottom)  
 Mach =   0.000     Re =     1.521 e 6     Ncrit =   9.000
  
   alpha    CL        CD       CDp       CM     Top_Xtr  Bot_Xtr
  ------ -------- --------- --------- -------- -------- --------
 -15.000  -0.9004   0.01829   0.01363  -0.1229   0.8128   0.0150
 -14.500  -0.8511   0.01715   0.01235  -0.1234   0.8117   0.0156
 -14.000  -0.8014   0.01595   0.01100  -0.1238   0.8108   0.0162
 -13.500  -0.7514   0.01468   0.00963  -0.1242   0.8100   0.0173
 -13.000  -0.6983   0.01389   0.00876  -0.1247   0.8094   0.0183
 -12.500  -0.6439   0.01329   0.00807  -0.1251   0.8090   0.0192
 -12.000  -0.5909   0.01230   0.00700  -0.1256   0.8087   0.0208
 -11.500  -0.5357   0.01172   0.00637  -0.1260   0.8086   0.0223
 -11.000  -0.4804   0.01106   0.00564  -0.1265   0.8085   0.0241
 -10.500  -0.4243   0.01055   0.00511  -0.1270   0.8085   0.0264
 -10.000  -0.3680   0.01002   0.00455  -0.1275   0.8085   0.0291
  -9.500  -0.3110   0.00964   0.00414  -0.1280   0.8085   0.0318
  -9.000  -0.2541   0.00919   0.00370  -0.1286   0.8086   0.0364
  -8.500  -0.1968   0.00881   0.00333  -0.1291   0.8086   0.0418
  -8.000  -0.1393   0.00846   0.00300  -0.1296   0.8084   0.0488
  -7.500  -0.0818   0.00809   0.00266  -0.1301   0.8064   0.0581
  -7.000  -0.0241   0.00777   0.00239  -0.1305   0.8044   0.0698
  -6.500   0.0336   0.00745   0.00214  -0.1310   0.8028   0.0880
  -6.000   0.0917   0.00718   0.00195  -0.1315   0.8013   0.1093
  -5.500   0.1497   0.00691   0.00178  -0.1321   0.7996   0.1372
  -5.000   0.2077   0.00666   0.00164  -0.1325   0.7976   0.1714
  -4.500   0.2658   0.00644   0.00154  -0.1330   0.7951   0.2114
  -4.000   0.3240   0.00629   0.00151  -0.1335   0.7919   0.2535
  -3.500   0.3820   0.00605   0.00143  -0.1339   0.7897   0.3005
  -3.000   0.4400   0.00582   0.00136  -0.1343   0.7857   0.3513
  -2.500   0.4978   0.00561   0.00130  -0.1346   0.7808   0.4077
  -2.000   0.5553   0.00545   0.00131  -0.1349   0.7747   0.4750
  -1.500   0.6127   0.00526   0.00129  -0.1350   0.7668   0.5328
  -1.000   0.6697   0.00517   0.00130  -0.1350   0.7549   0.5742
  -0.500   0.7201   0.00537   0.00128  -0.1336   0.6648   0.6043
  -0.000   0.7626   0.00627   0.00178  -0.1309   0.5647   0.6276
   0.500   0.8115   0.00678   0.00209  -0.1294   0.5102   0.6453
   1.000   0.8614   0.00723   0.00239  -0.1281   0.4661   0.6590
   1.500   0.9108   0.00769   0.00269  -0.1267   0.4267   0.6697
   2.000   0.9600   0.00817   0.00301  -0.1253   0.3862   0.6789
   2.500   1.0063   0.00876   0.00340  -0.1234   0.3365   0.6860
   3.000   1.0506   0.00945   0.00384  -0.1211   0.2834   0.6928
   3.500   1.0930   0.01024   0.00435  -0.1186   0.2274   0.6999
   4.000   1.1340   0.01104   0.00491  -0.1159   0.1731   0.7077
   4.500   1.1735   0.01183   0.00550  -0.1129   0.1287   0.7142
   5.500   1.2522   0.01339   0.00681  -0.1069   0.0724   0.7271
   6.000   1.2931   0.01416   0.00754  -0.1043   0.0568   0.7363
   6.500   1.3338   0.01484   0.00834  -0.1019   0.0455   0.7903
   7.000   1.3695   0.01534   0.00915  -0.0982   0.0383   0.9999
   7.500   1.4078   0.01626   0.01006  -0.0954   0.0325   0.9999
   8.000   1.4448   0.01724   0.01104  -0.0925   0.0284   0.9999
   8.500   1.4817   0.01823   0.01206  -0.0897   0.0256   0.9999
   9.000   1.5153   0.01943   0.01328  -0.0864   0.0228   0.9999
   9.500   1.5495   0.02058   0.01447  -0.0834   0.0210   0.9999
  10.000   1.5789   0.02206   0.01599  -0.0799   0.0190   0.9999
  10.500   1.6101   0.02342   0.01743  -0.0768   0.0179   0.9999
  11.000   1.6364   0.02512   0.01918  -0.0732   0.0166   0.9999
  11.500   1.6599   0.02707   0.02122  -0.0694   0.0156   0.9999
  12.000   1.6850   0.02889   0.02314  -0.0661   0.0148   0.9999
  12.500   1.7058   0.03109   0.02541  -0.0625   0.0140   0.9999
  13.000   1.7170   0.03407   0.02851  -0.0582   0.0131   0.9999
  13.500   1.7322   0.03687   0.03144  -0.0547   0.0126   0.9999
  14.000   1.7459   0.03990   0.03461  -0.0514   0.0122   0.9999
  14.500   1.7560   0.04345   0.03829  -0.0484   0.0118   0.9999
  15.000   1.7620   0.04761   0.04258  -0.0456   0.0113   0.9999
  15.500   1.7604   0.05293   0.04805  -0.0434   0.0109   0.9999
  16.000   1.7460   0.06047   0.05581  -0.0423   0.0105   0.9999
  16.500   1.7348   0.06822   0.06376  -0.0425   0.0103   0.9999
  17.000   1.7252   0.07614   0.07189  -0.0435   0.0101   0.9999
  17.500   1.7088   0.08521   0.08117  -0.0454   0.0099   0.9999
  18.000   1.6841   0.09579   0.09197  -0.0484   0.0097   0.9999
  18.500   1.6543   0.10748   0.10389  -0.0524   0.0096   0.9999
  19.000   1.6213   0.12007   0.11671  -0.0576   0.0095   0.9999
  19.500   1.5879   0.13317   0.13003  -0.0638   0.0094   0.9999
  20.000   1.5534   0.14697   0.14406  -0.0713   0.0093   0.9999
  20.500   1.5225   0.16066   0.15795  -0.0795   0.0092   0.9999
  21.000   1.4930   0.17449   0.17197  -0.0886   0.0091   0.9999
  21.500   1.4668   0.18820   0.18586  -0.0982   0.0089   0.9999
  22.000   1.4435   0.20188   0.19971  -0.1084   0.0088   0.9999
  22.500   1.4255   0.21474   0.21271  -0.1183   0.0086   0.9999
  23.000   1.4100   0.22733   0.22542  -0.1283   0.0084   0.9999
  23.500   1.3966   0.23962   0.23784  -0.1383   0.0081   0.9999
  24.000   1.3853   0.25204   0.25042  -0.1485   0.0080   0.9999
  24.500   1.3688   0.26702   0.26558  -0.1606   0.0078   0.9999
  25.000   0.8024   0.29780   0.29680  -0.1194   0.0062   0.9999
