  
       XFOIL         Version 6.99
  
 Calculated polar for: NACA 0012                                       
  
 1 1 Reynolds number fixed          Mach number fixed         
  
 xtrf =   1.000 (top)        1.000 (bottom)  
 Mach =   0.000     Re =     1.521 e 6     Ncrit =   9.000
  
   alpha    CL        CD       CDp       CM     Top_Xtr  Bot_Xtr
  ------ -------- --------- --------- -------- -------- --------
 -12.000  -0.2499   0.01159   0.00613  -0.1600   0.7567   0.0467
 -11.500  -0.1928   0.01116   0.00574  -0.1609   0.7575   0.0553
 -11.000  -0.1358   0.01084   0.00547  -0.1617   0.7585   0.0667
 -10.500  -0.0790   0.01057   0.00529  -0.1625   0.7595   0.0843
 -10.000  -0.0222   0.01039   0.00520  -0.1632   0.7606   0.1044
  -9.500   0.0347   0.01023   0.00516  -0.1640   0.7618   0.1314
  -9.000   0.0914   0.01011   0.00517  -0.1646   0.7629   0.1632
  -8.500   0.1481   0.01002   0.00522  -0.1652   0.7641   0.1995
  -8.000   0.2047   0.00999   0.00532  -0.1657   0.7652   0.2358
  -7.500   0.2612   0.01001   0.00547  -0.1661   0.7663   0.2725
  -7.000   0.3175   0.01010   0.00568  -0.1665   0.7673   0.3079
  -6.500   0.3785   0.00949   0.00514  -0.1674   0.7646   0.3410
  -6.000   0.4410   0.00864   0.00430  -0.1683   0.7606   0.3728
  -5.500   0.5017   0.00816   0.00387  -0.1691   0.7613   0.4016
  -5.000   0.5619   0.00775   0.00352  -0.1698   0.7608   0.4290
  -4.500   0.6222   0.00737   0.00313  -0.1704   0.7577   0.4527
  -4.000   0.6795   0.00735   0.00318  -0.1705   0.7537   0.4754
  -3.500   0.7385   0.00681   0.00271  -0.1707   0.7488   0.4963
  -3.000   0.7970   0.00642   0.00232  -0.1709   0.7410   0.5155
  -2.500   0.8540   0.00607   0.00206  -0.1707   0.7300   0.5322
  -2.000   0.8670   0.00783   0.00301  -0.1621   0.4986   0.5451
  -1.500   0.8845   0.00905   0.00384  -0.1544   0.3973   0.5573
  -1.000   0.8972   0.01030   0.00483  -0.1460   0.3253   0.5696
  -0.500   0.9209   0.01166   0.00596  -0.1403   0.2618   0.5808
  -0.000   0.9514   0.01289   0.00696  -0.1359   0.2082   0.5914
