  
       XFOIL         Version 6.99
  
 Calculated polar for: NACA 0012                                       
  
 1 1 Reynolds number fixed          Mach number fixed         
  
 xtrf =   1.000 (top)        1.000 (bottom)  
 Mach =   0.000     Re =     2.332 e 6     Ncrit =   9.000
  
   alpha    CL        CD       CDp       CM     Top_Xtr  Bot_Xtr
  ------ -------- --------- --------- -------- -------- --------
 -12.000  -1.2350   0.01398   0.00893  -0.0146   1.0000   0.0156
 -11.500  -1.1903   0.01332   0.00824  -0.0129   1.0000   0.0165
 -11.000  -1.1473   0.01268   0.00756  -0.0107   1.0000   0.0175
 -10.500  -1.1067   0.01204   0.00691  -0.0080   1.0000   0.0192
 -10.000  -1.0613   0.01154   0.00639  -0.0062   0.9997   0.0203
  -9.500  -1.0003   0.01086   0.00572  -0.0078   0.9980   0.0230
  -9.000  -0.9378   0.01031   0.00516  -0.0096   0.9961   0.0257
  -8.500  -0.8739   0.00980   0.00468  -0.0117   0.9945   0.0288
  -8.000  -0.8095   0.00926   0.00417  -0.0139   0.9914   0.0336
  -7.500  -0.7464   0.00877   0.00372  -0.0156   0.9852   0.0397
  -7.000  -0.6896   0.00832   0.00331  -0.0159   0.9749   0.0477
  -6.500  -0.6363   0.00789   0.00294  -0.0153   0.9611   0.0593
  -6.000  -0.5838   0.00752   0.00261  -0.0146   0.9443   0.0728
  -5.500  -0.5307   0.00714   0.00228  -0.0139   0.9263   0.0930
  -5.000  -0.4769   0.00678   0.00199  -0.0134   0.9073   0.1193
  -4.500  -0.4223   0.00644   0.00173  -0.0131   0.8881   0.1521
  -4.000  -0.3674   0.00609   0.00150  -0.0129   0.8682   0.1920
  -3.500  -0.3123   0.00579   0.00130  -0.0126   0.8471   0.2365
  -3.000  -0.2568   0.00553   0.00114  -0.0125   0.8252   0.2825
  -2.500  -0.2010   0.00529   0.00101  -0.0124   0.8016   0.3300
  -2.000  -0.1452   0.00511   0.00090  -0.0123   0.7730   0.3791
  -1.500  -0.0893   0.00498   0.00082  -0.0122   0.7323   0.4265
  -1.000  -0.0349   0.00504   0.00078  -0.0118   0.6524   0.4738
  -0.500   0.0204   0.00510   0.00078  -0.0116   0.5926   0.5190
  -0.000   0.0760   0.00516   0.00080  -0.0115   0.5371   0.5632
