  
       XFOIL         Version 6.99
  
 Calculated polar for: NACA 0012                                       
  
 1 1 Reynolds number fixed          Mach number fixed         
  
 xtrf =   1.000 (top)        1.000 (bottom)  
 Mach =   0.000     Re =     1.521 e 6     Ncrit =   9.000
  
   alpha    CL        CD       CDp       CM     Top_Xtr  Bot_Xtr
  ------ -------- --------- --------- -------- -------- --------
 -12.000  -0.0389   0.02660   0.02205  -0.1888   0.7735   0.0659
 -11.500  -0.0009   0.02752   0.02299  -0.1870   0.7738   0.0796
 -11.000   0.0364   0.02841   0.02394  -0.1850   0.7741   0.0957
 -10.500   0.0740   0.02928   0.02487  -0.1830   0.7746   0.1160
 -10.000   0.1128   0.03011   0.02577  -0.1811   0.7753   0.1403
  -9.000   0.1942   0.03169   0.02752  -0.1777   0.7771   0.1965
  -8.500   0.2380   0.03243   0.02835  -0.1763   0.7784   0.2277
  -8.000   0.2845   0.03315   0.02917  -0.1753   0.7800   0.2611
  -7.500   0.3344   0.03384   0.02994  -0.1747   0.7814   0.2920
  -7.000   0.3815   0.03409   0.03027  -0.1735   0.7796   0.3210
  -6.500   0.4348   0.03422   0.03049  -0.1731   0.7775   0.3510
  -6.000   0.4935   0.03425   0.03060  -0.1734   0.7757   0.3791
  -5.500   0.5731   0.03358   0.03001  -0.1766   0.7734   0.4069
  -5.000   0.6980   0.02836   0.02487  -0.1846   0.7532   0.4389
  -4.500   1.0360   0.00943   0.00546  -0.2293   0.7324   0.4841
  -4.000   1.1044   0.00803   0.00401  -0.2313   0.7308   0.5001
  -3.500   1.1203   0.00847   0.00416  -0.2229   0.6021   0.5122
  -3.000   1.0296   0.01555   0.01107  -0.1978   0.5096   0.5169
  -2.500   0.9748   0.02255   0.01783  -0.1814   0.4383   0.5241
  -2.000   0.9787   0.02489   0.01977  -0.1730   0.3508   0.5336
  -1.500   1.0064   0.02601   0.02059  -0.1683   0.2820   0.5451
  -1.000   1.0405   0.02673   0.02098  -0.1644   0.2156   0.5554
  -0.500   1.0776   0.02737   0.02137  -0.1610   0.1637   0.5654
