  
       XFOIL         Version 6.99
  
 Calculated polar for: NACA 0012                                       
  
 1 1 Reynolds number fixed          Mach number fixed         
  
 xtrf =   1.000 (top)        1.000 (bottom)  
 Mach =   0.000     Re =     1.521 e 6     Ncrit =   9.000
  
   alpha    CL        CD       CDp       CM     Top_Xtr  Bot_Xtr
  ------ -------- --------- --------- -------- -------- --------
 -12.000  -1.7443   0.04157   0.03590   0.0563   0.7019   0.0113
 -11.500  -1.7370   0.03819   0.03234   0.0612   0.6995   0.0118
 -11.000  -1.7212   0.03558   0.02961   0.0657   0.6975   0.0124
 -10.500  -1.6988   0.03353   0.02746   0.0696   0.6954   0.0129
 -10.000  -1.6734   0.03173   0.02555   0.0734   0.6927   0.0135
  -9.500  -1.6447   0.03017   0.02389   0.0770   0.6903   0.0140
  -9.000  -1.6179   0.02841   0.02201   0.0808   0.6882   0.0149
  -8.500  -1.5870   0.02692   0.02048   0.0843   0.6852   0.0159
  -8.000  -1.5526   0.02571   0.01919   0.0874   0.6823   0.0168
  -7.500  -1.5171   0.02454   0.01793   0.0905   0.6800   0.0176
  -7.000  -1.4818   0.02328   0.01665   0.0936   0.6774   0.0194
  -6.500  -1.4427   0.02233   0.01566   0.0963   0.6737   0.0208
  -6.000  -1.4043   0.02126   0.01456   0.0991   0.6706   0.0230
  -5.500  -1.3637   0.02038   0.01364   0.1016   0.6679   0.0250
  -5.000  -1.3230   0.01947   0.01273   0.1042   0.6640   0.0282
  -4.500  -1.2808   0.01867   0.01192   0.1066   0.6594   0.0316
  -4.000  -1.2383   0.01788   0.01113   0.1090   0.6553   0.0359
  -3.500  -1.1959   0.01710   0.01038   0.1113   0.6504   0.0423
  -3.000  -1.1530   0.01634   0.00967   0.1137   0.6443   0.0505
  -2.500  -1.1101   0.01560   0.00897   0.1160   0.6380   0.0627
  -2.000  -1.0679   0.01482   0.00831   0.1185   0.6311   0.0800
  -1.500  -1.0266   0.01402   0.00761   0.1212   0.6230   0.1036
  -1.000  -0.9866   0.01318   0.00693   0.1240   0.6145   0.1357
  -0.500  -0.9493   0.01225   0.00617   0.1273   0.6046   0.1773
  -0.000  -0.9153   0.01123   0.00538   0.1313   0.5945   0.2280
