  
       XFOIL         Version 6.99
  
 Calculated polar for: NACA 2412                                       
  
 1 1 Reynolds number fixed          Mach number fixed         
  
 xtrf =   1.000 (top)        1.000 (bottom)  
 Mach =   0.000     Re =     2.332 e 6     Ncrit =   9.000
  
   alpha    CL        CD       CDp       CM     Top_Xtr  Bot_Xtr
  ------ -------- --------- --------- -------- -------- --------
 -15.000  -1.6574   0.03243   0.02845  -0.0169   0.9999   0.0090
 -14.500  -1.6508   0.02931   0.02517  -0.0128   0.9999   0.0093
 -14.000  -1.6384   0.02746   0.02271  -0.0082   0.7575   0.0095
 -13.500  -1.6176   0.02562   0.02069  -0.0044   0.7350   0.0098
 -13.000  -1.5931   0.02406   0.01899  -0.0005   0.7291   0.0101
 -12.500  -1.5651   0.02272   0.01754   0.0032   0.7251   0.0104
 -12.000  -1.5342   0.02156   0.01627   0.0068   0.7220   0.0106
 -11.500  -1.5023   0.02059   0.01520   0.0107   0.7191   0.0108
 -11.000  -1.4689   0.01920   0.01365   0.0140   0.7154   0.0114
 -10.500  -1.4292   0.01812   0.01249   0.0166   0.7129   0.0120
 -10.000  -1.3860   0.01727   0.01158   0.0187   0.7101   0.0126
  -9.500  -1.3409   0.01655   0.01077   0.0205   0.7066   0.0131
  -9.000  -1.2939   0.01586   0.01002   0.0221   0.7041   0.0135
  -8.500  -1.2481   0.01493   0.00902   0.0238   0.7008   0.0146
  -8.000  -1.1996   0.01428   0.00834   0.0252   0.6977   0.0156
  -7.500  -1.1495   0.01368   0.00770   0.0263   0.6942   0.0164
  -7.000  -1.0998   0.01298   0.00696   0.0276   0.6908   0.0177
  -6.500  -1.0489   0.01240   0.00637   0.0286   0.6875   0.0192
  -6.000  -0.9968   0.01189   0.00585   0.0295   0.6839   0.0204
  -5.500  -0.9450   0.01131   0.00528   0.0304   0.6793   0.0229
  -5.000  -0.8922   0.01085   0.00479   0.0312   0.6746   0.0250
  -4.500  -0.8391   0.01039   0.00435   0.0319   0.6687   0.0280
  -4.000  -0.7858   0.00995   0.00391   0.0326   0.6617   0.0321
  -3.500  -0.7319   0.00954   0.00353   0.0332   0.6543   0.0370
  -3.000  -0.6779   0.00917   0.00317   0.0338   0.6451   0.0434
  -2.500  -0.6237   0.00881   0.00284   0.0343   0.6350   0.0521
  -2.000  -0.5693   0.00847   0.00255   0.0348   0.6237   0.0634
  -1.500  -0.5149   0.00815   0.00227   0.0353   0.6107   0.0793
  -1.000  -0.4604   0.00785   0.00203   0.0357   0.5959   0.1001
  -0.500  -0.4060   0.00754   0.00180   0.0361   0.5804   0.1289
  -0.000  -0.3515   0.00724   0.00161   0.0366   0.5641   0.1659
   0.500  -0.2971   0.00695   0.00144   0.0370   0.5470   0.2104
   1.000  -0.2429   0.00664   0.00129   0.0374   0.5294   0.2686
   1.500  -0.1889   0.00632   0.00117   0.0378   0.5122   0.3411
   2.500  -0.0896   0.00477   0.00080   0.0400   0.4785   0.7389
   3.500   0.0271   0.00497   0.00090   0.0394   0.4443   0.7625
   4.000   0.0855   0.00509   0.00095   0.0390   0.4269   0.7673
   4.500   0.1436   0.00518   0.00102   0.0387   0.4076   0.7729
   5.000   0.2017   0.00536   0.00112   0.0383   0.3842   0.7780
   5.500   0.2596   0.00558   0.00124   0.0380   0.3565   0.7809
   6.000   0.3172   0.00583   0.00138   0.0376   0.3243   0.7829
   6.500   0.3741   0.00607   0.00152   0.0373   0.2886   0.7876
   7.000   0.4309   0.00642   0.00171   0.0369   0.2491   0.7872
   7.500   0.4874   0.00682   0.00194   0.0365   0.2075   0.7862
   8.000   0.5432   0.00729   0.00223   0.0362   0.1661   0.7851
   8.500   0.5983   0.00782   0.00258   0.0360   0.1269   0.7841
   9.000   0.6534   0.00833   0.00294   0.0357   0.0970   0.7831
   9.500   0.7081   0.00887   0.00336   0.0355   0.0735   0.7822
  10.000   0.7627   0.00934   0.00376   0.0353   0.0587   0.7818
  10.500   0.8167   0.00987   0.00422   0.0352   0.0465   0.7816
  11.000   0.8706   0.01038   0.00469   0.0351   0.0385   0.7813
  11.500   0.9239   0.01091   0.00521   0.0350   0.0325   0.7811
  12.000   0.9765   0.01148   0.00576   0.0349   0.0280   0.7809
  12.500   1.0289   0.01204   0.00633   0.0349   0.0251   0.7807
  13.000   1.0803   0.01267   0.00698   0.0349   0.0223   0.7805
  13.500   1.1305   0.01337   0.00769   0.0351   0.0200   0.7804
  14.000   1.1801   0.01408   0.00845   0.0353   0.0185   0.7803
  14.500   1.2282   0.01486   0.00925   0.0356   0.0169   0.7802
  15.000   1.2743   0.01579   0.01023   0.0361   0.0155   0.7802
  15.500   1.3200   0.01664   0.01114   0.0366   0.0147   0.7802
  16.000   1.3623   0.01771   0.01225   0.0375   0.0137   0.7802
  16.500   1.3993   0.01907   0.01371   0.0387   0.0127   0.7804
  17.000   1.4361   0.02028   0.01499   0.0399   0.0123   0.7806
  17.500   1.4608   0.02181   0.01662   0.0424   0.0118   0.7809
  18.000   1.4811   0.02433   0.01924   0.0431   0.0113   0.7813
  18.500   1.4970   0.02898   0.02403   0.0398   0.0107   0.7818
  19.500   1.5012   0.03967   0.03504   0.0365   0.0101   0.7860
  20.000   1.4979   0.04569   0.04121   0.0346   0.0100   0.7886
  20.500   1.4871   0.05273   0.04842   0.0323   0.0098   0.7911
  21.000   1.4702   0.06099   0.05686   0.0291   0.0097   0.7938
  21.500   1.4486   0.07035   0.06641   0.0253   0.0095   0.7967
  22.500   1.3826   0.09360   0.09008   0.0150   0.0093   0.8076
  23.000   1.3402   0.10734   0.10404   0.0086   0.0093   0.8145
  23.500   1.2906   0.12284   0.11981   0.0009   0.0092   0.8257
  24.000   1.2437   0.13859   0.13582  -0.0074   0.0092   0.8451
  24.500   1.1986   0.15381   0.15167  -0.0153   0.0091   1.0001
  25.000   1.1608   0.16949   0.16753  -0.0247   0.0090   1.0001
