  
       XFOIL         Version 6.99
  
 Calculated polar for: NACA 0012                                       
  
 1 1 Reynolds number fixed          Mach number fixed         
  
 xtrf =   1.000 (top)        1.000 (bottom)  
 Mach =   0.000     Re =     2.332 e 6     Ncrit =   9.000
  
   alpha    CL        CD       CDp       CM     Top_Xtr  Bot_Xtr
  ------ -------- --------- --------- -------- -------- --------
 -12.000  -1.8153   0.03558   0.02992   0.0634   0.6896   0.0099
 -11.500  -1.7949   0.03346   0.02770   0.0675   0.6882   0.0103
 -11.000  -1.7698   0.03166   0.02582   0.0713   0.6863   0.0107
 -10.500  -1.7437   0.02999   0.02406   0.0751   0.6842   0.0111
 -10.000  -1.7136   0.02857   0.02256   0.0785   0.6822   0.0113
  -9.500  -1.6870   0.02684   0.02074   0.0825   0.6806   0.0122
  -9.000  -1.6548   0.02551   0.01937   0.0859   0.6789   0.0130
  -8.500  -1.6202   0.02435   0.01816   0.0890   0.6765   0.0137
  -8.000  -1.5839   0.02330   0.01705   0.0919   0.6737   0.0142
  -7.500  -1.5483   0.02211   0.01583   0.0951   0.6711   0.0157
  -7.000  -1.5099   0.02115   0.01484   0.0979   0.6686   0.0168
  -6.500  -1.4704   0.02025   0.01389   0.1005   0.6656   0.0179
  -6.000  -1.4305   0.01934   0.01299   0.1032   0.6619   0.0200
  -5.500  -1.3888   0.01856   0.01218   0.1056   0.6579   0.0215
  -5.000  -1.3472   0.01775   0.01136   0.1081   0.6533   0.0244
  -4.500  -1.3048   0.01700   0.01062   0.1105   0.6490   0.0272
  -4.000  -1.2615   0.01631   0.00994   0.1127   0.6435   0.0303
  -3.500  -1.2181   0.01561   0.00925   0.1150   0.6371   0.0357
  -3.000  -1.1746   0.01492   0.00861   0.1172   0.6311   0.0422
  -2.500  -1.1311   0.01425   0.00796   0.1195   0.6231   0.0506
  -2.000  -1.0876   0.01358   0.00736   0.1218   0.6157   0.0629
  -1.500  -1.0451   0.01287   0.00673   0.1243   0.6060   0.0800
  -1.000  -1.0035   0.01215   0.00612   0.1269   0.5969   0.1028
  -0.500  -0.9637   0.01137   0.00547   0.1299   0.5858   0.1342
  -0.000  -0.9250   0.01059   0.00483   0.1331   0.5741   0.1700
