  
       XFOIL         Version 6.99
  
 Calculated polar for: NACA 2412                                       
  
 1 1 Reynolds number fixed          Mach number fixed         
  
 xtrf =   1.000 (top)        1.000 (bottom)  
 Mach =   0.000     Re =     2.332 e 6     Ncrit =   9.000
  
   alpha    CL        CD       CDp       CM     Top_Xtr  Bot_Xtr
  ------ -------- --------- --------- -------- -------- --------
 -15.000  -1.7767   0.04961   0.04530   0.0059   0.6969   0.0083
 -14.500  -1.7805   0.04506   0.04058   0.0096   0.6954   0.0085
 -14.000  -1.7782   0.04131   0.03669   0.0138   0.6940   0.0086
 -13.500  -1.7714   0.03813   0.03335   0.0181   0.6927   0.0088
 -13.000  -1.7596   0.03539   0.03046   0.0225   0.6915   0.0090
 -12.500  -1.7436   0.03303   0.02796   0.0268   0.6901   0.0092
 -12.000  -1.7233   0.03097   0.02579   0.0309   0.6882   0.0093
 -11.500  -1.6998   0.02918   0.02389   0.0349   0.6861   0.0094
 -11.000  -1.6805   0.02695   0.02149   0.0396   0.6844   0.0098
 -10.500  -1.6548   0.02517   0.01959   0.0437   0.6828   0.0103
 -10.000  -1.6233   0.02380   0.01815   0.0472   0.6811   0.0108
  -9.500  -1.5894   0.02258   0.01686   0.0505   0.6787   0.0112
  -9.000  -1.5529   0.02150   0.01570   0.0535   0.6759   0.0116
  -8.500  -1.5146   0.02055   0.01469   0.0564   0.6732   0.0119
  -8.000  -1.4763   0.01939   0.01344   0.0593   0.6706   0.0126
  -7.500  -1.4357   0.01843   0.01244   0.0620   0.6674   0.0135
  -7.000  -1.3932   0.01761   0.01158   0.0644   0.6634   0.0142
  -6.500  -1.3493   0.01689   0.01081   0.0666   0.6596   0.0148
  -6.000  -1.3050   0.01607   0.00993   0.0688   0.6556   0.0159
  -5.500  -1.2597   0.01535   0.00921   0.0709   0.6511   0.0171
  -5.000  -1.2133   0.01477   0.00860   0.0728   0.6459   0.0181
  -4.500  -1.1668   0.01409   0.00789   0.0747   0.6402   0.0201
  -4.000  -1.1195   0.01353   0.00732   0.0765   0.6344   0.0217
  -3.500  -1.0722   0.01295   0.00672   0.0783   0.6270   0.0240
  -3.000  -1.0242   0.01246   0.00623   0.0801   0.6204   0.0263
  -2.500  -0.9766   0.01192   0.00570   0.0819   0.6117   0.0303
  -2.000  -0.9289   0.01144   0.00523   0.0837   0.6035   0.0345
  -1.500  -0.8822   0.01101   0.00479   0.0857   0.5930   0.0399
  -1.000  -0.8378   0.01060   0.00442   0.0882   0.5836   0.0467
  -0.500  -0.7905   0.01019   0.00403   0.0902   0.5725   0.0567
  -0.000  -0.7425   0.00978   0.00368   0.0919   0.5604   0.0701
   0.500  -0.6940   0.00939   0.00335   0.0936   0.5487   0.0872
   1.000  -0.6460   0.00899   0.00304   0.0954   0.5361   0.1116
   1.500  -0.5976   0.00860   0.00274   0.0970   0.5225   0.1430
   2.000  -0.5499   0.00817   0.00246   0.0988   0.5095   0.1878
   2.500  -0.5015   0.00774   0.00221   0.1004   0.4969   0.2408
   3.000  -0.4537   0.00726   0.00196   0.1021   0.4840   0.3135
   4.000  -0.3710   0.00515   0.00115   0.1075   0.4588   0.7258
   4.500  -0.3117   0.00543   0.00137   0.1071   0.4452   0.7330
   5.000  -0.2534   0.00556   0.00148   0.1068   0.4313   0.7389
   5.500  -0.1945   0.00584   0.00174   0.1064   0.4156   0.7440
   6.000  -0.1355   0.00613   0.00198   0.1060   0.3984   0.7471
   6.500  -0.0764   0.00647   0.00227   0.1054   0.3775   0.7488
   7.000  -0.0194   0.00638   0.00209   0.1051   0.3535   0.7524
   7.500   0.0391   0.00672   0.00244   0.1046   0.3279   0.7580
   8.000   0.0972   0.00696   0.00259   0.1041   0.2986   0.7592
   8.500   0.1549   0.00714   0.00265   0.1034   0.2653   0.7583
   9.000   0.2123   0.00738   0.00275   0.1028   0.2288   0.7575
   9.500   0.2693   0.00769   0.00291   0.1021   0.1904   0.7567
  10.000   0.3262   0.00803   0.00310   0.1015   0.1546   0.7560
  10.500   0.3826   0.00843   0.00336   0.1008   0.1207   0.7552
  11.000   0.4388   0.00887   0.00366   0.1001   0.0929   0.7545
  11.500   0.4949   0.00930   0.00399   0.0995   0.0724   0.7538
  12.000   0.5506   0.00977   0.00438   0.0988   0.0569   0.7532
  12.500   0.6062   0.01024   0.00480   0.0981   0.0462   0.7525
  13.000   0.6616   0.01072   0.00526   0.0974   0.0388   0.7520
  13.500   0.7164   0.01125   0.00577   0.0968   0.0328   0.7514
  14.000   0.7707   0.01185   0.00636   0.0961   0.0281   0.7509
  14.500   0.8249   0.01241   0.00694   0.0954   0.0254   0.7505
  15.000   0.8782   0.01306   0.00762   0.0947   0.0227   0.7500
  15.500   0.9306   0.01381   0.00838   0.0940   0.0202   0.7496
  16.000   0.9826   0.01456   0.00919   0.0933   0.0188   0.7492
  16.500   1.0334   0.01542   0.01008   0.0926   0.0173   0.7489
  17.000   1.0823   0.01650   0.01123   0.0918   0.0158   0.7486
  17.500   1.1314   0.01740   0.01220   0.0909   0.0150   0.7484
  18.000   1.1781   0.01865   0.01350   0.0897   0.0140   0.7483
  18.500   1.2206   0.02067   0.01562   0.0876   0.0129   0.7481
  19.000   1.2630   0.02270   0.01777   0.0848   0.0125   0.7479
  19.500   1.2881   0.02633   0.02151   0.0806   0.0121   0.7477
  20.000   1.2996   0.03078   0.02607   0.0776   0.0117   0.7475
  20.500   1.3039   0.03581   0.03120   0.0750   0.0114   0.7472
  21.000   1.2994   0.04183   0.03734   0.0722   0.0110   0.7469
  21.500   1.2847   0.04936   0.04503   0.0687   0.0106   0.7466
  22.000   1.2592   0.05870   0.05454   0.0642   0.0103   0.7464
  22.500   1.2395   0.06776   0.06376   0.0598   0.0102   0.7461
  23.000   1.2169   0.07754   0.07370   0.0549   0.0101   0.7459
  23.500   1.1868   0.08873   0.08506   0.0494   0.0101   0.7456
  24.000   1.1477   0.10177   0.09829   0.0429   0.0100   0.7454
  24.500   1.1047   0.11597   0.11267   0.0358   0.0100   0.7452
  25.000   1.0623   0.13068   0.12755   0.0282   0.0099   0.7450
