  
       XFOIL         Version 6.99
  
 Calculated polar for: NACA 0012                                       
  
 1 1 Reynolds number fixed          Mach number fixed         
  
 xtrf =   1.000 (top)        1.000 (bottom)  
 Mach =   0.000     Re =     1.521 e 6     Ncrit =   9.000
  
   alpha    CL        CD       CDp       CM     Top_Xtr  Bot_Xtr
  ------ -------- --------- --------- -------- -------- --------
 -12.000  -0.9474   0.01324   0.00787  -0.0569   0.8921   0.0216
 -11.500  -0.8973   0.01246   0.00700  -0.0565   0.8799   0.0236
 -11.000  -0.8451   0.01189   0.00635  -0.0563   0.8708   0.0257
 -10.500  -0.7926   0.01124   0.00566  -0.0562   0.8642   0.0288
 -10.000  -0.7391   0.01073   0.00508  -0.0561   0.8586   0.0321
  -9.500  -0.6847   0.01024   0.00457  -0.0561   0.8544   0.0362
  -9.000  -0.6301   0.00972   0.00407  -0.0562   0.8514   0.0424
  -8.500  -0.5749   0.00926   0.00363  -0.0564   0.8485   0.0500
  -8.000  -0.5196   0.00879   0.00321  -0.0565   0.8460   0.0623
  -7.500  -0.4639   0.00837   0.00285  -0.0567   0.8438   0.0776
  -7.000  -0.4080   0.00795   0.00252  -0.0569   0.8417   0.0994
  -6.000  -0.2956   0.00715   0.00196  -0.0573   0.8346   0.1627
  -5.500  -0.2395   0.00675   0.00172  -0.0575   0.8295   0.2049
  -5.000  -0.1830   0.00642   0.00153  -0.0577   0.8247   0.2499
  -4.500  -0.1259   0.00613   0.00138  -0.0580   0.8204   0.2950
  -4.000  -0.0686   0.00586   0.00126  -0.0582   0.8164   0.3402
  -3.500  -0.0113   0.00561   0.00116  -0.0585   0.8112   0.3850
  -3.000   0.0461   0.00546   0.00110  -0.0587   0.8048   0.4263
  -2.500   0.1038   0.00525   0.00105  -0.0589   0.7987   0.4664
  -2.000   0.1611   0.00514   0.00101  -0.0590   0.7892   0.5033
  -1.500   0.2188   0.00501   0.00100  -0.0592   0.7784   0.5369
  -1.000   0.2761   0.00493   0.00099  -0.0592   0.7612   0.5679
  -0.500   0.3273   0.00530   0.00101  -0.0580   0.6383   0.5943
  -0.000   0.3777   0.00589   0.00127  -0.0568   0.5283   0.6183
