  
       XFOIL         Version 6.99
  
 Calculated polar for: NACA 2412                                       
  
 1 1 Reynolds number fixed          Mach number fixed         
  
 xtrf =   1.000 (top)        1.000 (bottom)  
 Mach =   0.000     Re =     2.332 e 6     Ncrit =   9.000
  
   alpha    CL        CD       CDp       CM     Top_Xtr  Bot_Xtr
  ------ -------- --------- --------- -------- -------- --------
 -15.000  -1.5365   0.02491   0.02082  -0.0359   0.9999   0.0098
 -14.500  -1.5157   0.02324   0.01904  -0.0318   0.9999   0.0101
 -14.000  -1.4893   0.02186   0.01756  -0.0280   0.9999   0.0104
 -13.500  -1.4539   0.02066   0.01627  -0.0254   0.9999   0.0107
 -13.000  -1.4150   0.01957   0.01509  -0.0232   0.9999   0.0109
 -12.500  -1.3761   0.01834   0.01375  -0.0210   0.9999   0.0112
 -12.000  -1.3370   0.01698   0.01229  -0.0187   0.9999   0.0120
 -11.500  -1.2931   0.01604   0.01130  -0.0169   0.9999   0.0125
 -11.000  -1.2476   0.01522   0.01043  -0.0154   0.9999   0.0131
 -10.500  -1.2012   0.01451   0.00965  -0.0138   0.9999   0.0135
 -10.000  -1.1565   0.01367   0.00875  -0.0118   0.9999   0.0142
  -9.500  -1.1122   0.01292   0.00797  -0.0097   0.9999   0.0153
  -9.000  -1.0566   0.01228   0.00732  -0.0099   0.9979   0.0162
  -8.500  -0.9928   0.01160   0.00659  -0.0119   0.9917   0.0172
  -8.000  -0.9313   0.01092   0.00590  -0.0133   0.9668   0.0190
  -7.500  -0.8875   0.01104   0.00537  -0.0105   0.7479   0.0200
  -7.000  -0.8348   0.01056   0.00481  -0.0099   0.7299   0.0223
  -6.500  -0.7807   0.01020   0.00440  -0.0095   0.7221   0.0239
  -6.000  -0.7270   0.00976   0.00394  -0.0090   0.7146   0.0271
  -5.500  -0.6723   0.00938   0.00356  -0.0087   0.7095   0.0305
  -5.000  -0.6174   0.00908   0.00323  -0.0083   0.7033   0.0344
  -4.500  -0.5619   0.00871   0.00290  -0.0081   0.6978   0.0396
  -4.000  -0.5064   0.00837   0.00259  -0.0079   0.6907   0.0477
  -3.500  -0.4505   0.00801   0.00229  -0.0078   0.6824   0.0582
  -3.000  -0.3946   0.00769   0.00202  -0.0077   0.6724   0.0719
  -2.500  -0.3386   0.00739   0.00178  -0.0076   0.6594   0.0907
  -2.000  -0.2826   0.00712   0.00157  -0.0075   0.6440   0.1142
  -1.500  -0.2266   0.00686   0.00139  -0.0074   0.6264   0.1451
  -1.000  -0.1707   0.00660   0.00123  -0.0073   0.6068   0.1858
  -0.500  -0.1149   0.00637   0.00111  -0.0072   0.5853   0.2321
  -0.000  -0.0591   0.00617   0.00101  -0.0071   0.5630   0.2877
   0.500  -0.0033   0.00594   0.00094  -0.0071   0.5415   0.3554
   1.000   0.0514   0.00559   0.00087  -0.0069   0.5195   0.4649
   1.500   0.1045   0.00508   0.00079  -0.0065   0.4979   0.6315
   2.000   0.1588   0.00479   0.00083  -0.0060   0.4778   0.7658
   2.500   0.2165   0.00487   0.00088  -0.0062   0.4577   0.7847
   3.000   0.2740   0.00497   0.00094  -0.0064   0.4368   0.7986
   4.000   0.3889   0.00527   0.00112  -0.0069   0.3876   0.8175
   4.500   0.4456   0.00547   0.00124  -0.0070   0.3555   0.8268
   5.500   0.5572   0.00606   0.00161  -0.0070   0.2798   0.8519
   6.000   0.6118   0.00645   0.00186  -0.0069   0.2357   0.8639
   6.500   0.6664   0.00694   0.00216  -0.0069   0.1901   0.8704
   7.000   0.7199   0.00745   0.00252  -0.0066   0.1475   0.8809
   7.500   0.7730   0.00796   0.00290  -0.0064   0.1122   0.8930
   8.000   0.8255   0.00846   0.00332  -0.0060   0.0855   0.9090
   8.500   0.8769   0.00894   0.00376  -0.0053   0.0660   0.9297
   9.000   0.9268   0.00945   0.00424  -0.0043   0.0519   0.9545
   9.500   0.9784   0.00995   0.00473  -0.0037   0.0423   0.9780
  10.000   1.0369   0.01051   0.00526  -0.0049   0.0351   0.9914
  11.000   1.1505   0.01178   0.00647  -0.0067   0.0256   1.0001
  11.500   1.1972   0.01238   0.00707  -0.0055   0.0229   1.0001
  12.000   1.2444   0.01304   0.00774  -0.0044   0.0207   1.0001
  12.500   1.2906   0.01379   0.00850  -0.0033   0.0187   1.0001
  13.000   1.3363   0.01454   0.00929  -0.0022   0.0173   1.0001
  13.500   1.3805   0.01536   0.01012  -0.0010   0.0159   1.0001
  14.000   1.4214   0.01637   0.01118   0.0007   0.0146   1.0001
  14.500   1.4624   0.01726   0.01212   0.0022   0.0139   1.0001
  15.000   1.4986   0.01833   0.01324   0.0044   0.0131   1.0001
  15.500   1.5223   0.01975   0.01473   0.0084   0.0122   1.0001
  16.000   1.5461   0.02131   0.01639   0.0116   0.0118   1.0001
  16.500   1.5695   0.02313   0.01830   0.0140   0.0114   1.0001
  17.000   1.5894   0.02555   0.02083   0.0156   0.0110   1.0001
  17.500   1.6053   0.02890   0.02428   0.0159   0.0105   1.0001
  18.000   1.6144   0.03341   0.02893   0.0154   0.0100   1.0001
  18.500   1.6096   0.03940   0.03509   0.0147   0.0096   1.0001
  19.000   1.6082   0.04518   0.04102   0.0136   0.0094   1.0001
  19.500   1.6012   0.05179   0.04779   0.0121   0.0093   1.0001
  20.000   1.5868   0.05963   0.05581   0.0098   0.0092   1.0001
  20.500   1.5677   0.06867   0.06503   0.0067   0.0091   1.0001
  21.000   1.5420   0.07891   0.07547   0.0029   0.0090   1.0001
  21.500   1.5075   0.09084   0.08761  -0.0020   0.0089   1.0001
  22.000   1.4664   0.10429   0.10128  -0.0079   0.0088   1.0001
  22.500   1.4200   0.11910   0.11631  -0.0149   0.0088   1.0001
  23.000   1.3729   0.13460   0.13203  -0.0228   0.0087   1.0001
  23.500   1.3237   0.15140   0.14905  -0.0322   0.0087   1.0001
  24.000   1.2820   0.16758   0.16543  -0.0421   0.0086   1.0001
  24.500   1.2469   0.18339   0.18142  -0.0524   0.0085   1.0001
  25.000   1.2233   0.19721   0.19537  -0.0618   0.0083   1.0001
