  
       XFOIL         Version 6.99
  
 Calculated polar for: NACA 2412                                       
  
 1 1 Reynolds number fixed          Mach number fixed         
  
 xtrf =   1.000 (top)        1.000 (bottom)  
 Mach =   0.000     Re =     1.521 e 6     Ncrit =   9.000
  
   alpha    CL        CD       CDp       CM     Top_Xtr  Bot_Xtr
  ------ -------- --------- --------- -------- -------- --------
 -15.000  -0.2407   0.01729   0.01260  -0.2190   0.7599   0.0218
 -14.500  -0.1812   0.01618   0.01140  -0.2215   0.7602   0.0239
 -14.000  -0.1218   0.01549   0.01062  -0.2232   0.7604   0.0256
 -13.500  -0.0623   0.01467   0.00974  -0.2251   0.7608   0.0283
 -13.000  -0.0030   0.01414   0.00915  -0.2265   0.7612   0.0307
 -12.500   0.0562   0.01350   0.00849  -0.2281   0.7617   0.0347
 -12.000   0.1147   0.01306   0.00803  -0.2293   0.7623   0.0391
 -11.500   0.1718   0.01281   0.00779  -0.2302   0.7634   0.0443
 -11.000   0.2270   0.01286   0.00790  -0.2308   0.7650   0.0513
 -10.500   0.2787   0.01321   0.00833  -0.2307   0.7671   0.0606
 -10.000   0.3296   0.01360   0.00882  -0.2305   0.7690   0.0732
  -9.500   0.3814   0.01397   0.00926  -0.2303   0.7706   0.0886
  -9.000   0.4332   0.01438   0.00975  -0.2300   0.7720   0.1061
  -8.500   0.4915   0.01408   0.00953  -0.2308   0.7711   0.1327
  -8.000   0.5557   0.01327   0.00877  -0.2325   0.7684   0.1635
  -7.500   0.6188   0.01270   0.00827  -0.2340   0.7667   0.1979
  -7.000   0.6841   0.01196   0.00756  -0.2358   0.7645   0.2344
  -6.500   0.7455   0.01153   0.00718  -0.2369   0.7628   0.2712
  -6.000   0.8027   0.01163   0.00735  -0.2373   0.7613   0.3064
  -5.500   0.8488   0.01267   0.00853  -0.2357   0.7600   0.3407
  -5.000   0.9149   0.01156   0.00749  -0.2375   0.7591   0.3798
  -4.500   0.9798   0.01070   0.00670  -0.2391   0.7584   0.4201
  -4.000   1.0441   0.01001   0.00609  -0.2407   0.7587   0.4599
  -3.500   1.1070   0.00920   0.00534  -0.2418   0.7568   0.4940
  -3.000   1.1686   0.00835   0.00453  -0.2426   0.7518   0.5205
  -2.500   1.2292   0.00772   0.00388  -0.2432   0.7447   0.5419
  -2.000   1.2836   0.00700   0.00319  -0.2424   0.7336   0.5592
  -1.500   1.2446   0.00918   0.00485  -0.2229   0.5741   0.5684
  -1.000   1.2062   0.01355   0.00899  -0.2065   0.5020   0.5773
  -0.500   1.2004   0.01745   0.01274  -0.1971   0.4528   0.5867
  -0.000   1.2146   0.01976   0.01489  -0.1905   0.4109   0.5967
   0.500   1.2346   0.02151   0.01644  -0.1847   0.3631   0.6055
   1.000   1.2597   0.02291   0.01758  -0.1795   0.3098   0.6138
   1.500   1.2876   0.02413   0.01851  -0.1748   0.2506   0.6212
   2.000   1.3180   0.02522   0.01928  -0.1705   0.1922   0.6281
   2.500   1.3508   0.02624   0.02002  -0.1666   0.1420   0.6341
   3.000   1.3856   0.02723   0.02080  -0.1630   0.1045   0.6393
   3.500   1.4214   0.02821   0.02161  -0.1597   0.0774   0.6447
   4.000   1.4577   0.02921   0.02250  -0.1565   0.0584   0.6496
   4.500   1.4947   0.03021   0.02345  -0.1535   0.0472   0.6530
   5.000   1.5309   0.03126   0.02446  -0.1504   0.0389   0.6564
   5.500   1.5667   0.03236   0.02554  -0.1473   0.0328   0.6603
   6.000   1.6014   0.03354   0.02672  -0.1441   0.0284   0.6632
   6.500   1.6335   0.03492   0.02811  -0.1406   0.0246   0.6651
   7.000   1.6662   0.03625   0.02949  -0.1374   0.0224   0.6674
   7.500   1.6956   0.03783   0.03110  -0.1336   0.0199   0.6703
   8.000   1.7268   0.03929   0.03262  -0.1303   0.0186   0.6737
   8.500   1.7530   0.04114   0.03451  -0.1264   0.0169   0.6753
   9.000   1.7779   0.04309   0.03656  -0.1225   0.0159   0.6772
   9.500   1.8030   0.04504   0.03860  -0.1187   0.0149   0.6794
  10.000   1.8233   0.04742   0.04105  -0.1145   0.0138   0.6820
  10.500   1.8394   0.05023   0.04398  -0.1101   0.0131   0.6842
  11.000   1.8589   0.05273   0.04660  -0.1062   0.0125   0.6857
  11.500   1.8732   0.05580   0.04979  -0.1021   0.0120   0.6876
  12.000   1.8848   0.05918   0.05328  -0.0980   0.0114   0.6900
  12.500   1.8844   0.06389   0.05814  -0.0933   0.0108   0.6917
  13.000   1.8868   0.06853   0.06295  -0.0895   0.0104   0.6929
  13.500   1.8914   0.07317   0.06775  -0.0863   0.0101   0.6945
  14.000   1.8891   0.07897   0.07374  -0.0838   0.0098   0.6964
  14.500   1.8831   0.08560   0.08054  -0.0820   0.0096   0.6980
  15.000   1.8729   0.09312   0.08826  -0.0813   0.0093   0.6991
  15.500   1.8581   0.10159   0.09692  -0.0817   0.0091   0.7003
  16.000   1.8368   0.11125   0.10680  -0.0835   0.0088   0.7013
  16.500   1.8093   0.12215   0.11793  -0.0867   0.0086   0.7022
  17.000   1.7767   0.13437   0.13039  -0.0918   0.0084   0.7031
  17.500   1.7396   0.14788   0.14416  -0.0989   0.0083   0.7039
  18.000   1.7165   0.15923   0.15574  -0.1056   0.0082   0.7048
  18.500   1.6953   0.17064   0.16736  -0.1131   0.0081   0.7056
  19.000   1.6725   0.18274   0.17966  -0.1217   0.0080   0.7062
  19.500   1.6499   0.19517   0.19230  -0.1312   0.0080   0.7069
  20.000   1.6290   0.20756   0.20488  -0.1412   0.0079   0.7075
  20.500   1.6090   0.22003   0.21753  -0.1517   0.0077   0.7080
  21.000   1.5906   0.23260   0.23027  -0.1626   0.0076   0.7086
  21.500   1.5756   0.24472   0.24254  -0.1734   0.0075   0.7091
  22.000   1.5630   0.25658   0.25455  -0.1841   0.0073   0.7097
  22.500   1.5528   0.26805   0.26615  -0.1946   0.0070   0.7105
  23.000   1.5432   0.27979   0.27800  -0.2055   0.0068   0.7113
  23.500   1.5347   0.29152   0.28982  -0.2165   0.0065   0.7120
  25.000   0.8905   0.35488   0.35370  -0.1647   0.0037   0.7046
