  
       XFOIL         Version 6.99
  
 Calculated polar for: NACA 2412                                       
  
 1 1 Reynolds number fixed          Mach number fixed         
  
 xtrf =   1.000 (top)        1.000 (bottom)  
 Mach =   0.000     Re =     2.332 e 6     Ncrit =   9.000
  
   alpha    CL        CD       CDp       CM     Top_Xtr  Bot_Xtr
  ------ -------- --------- --------- -------- -------- --------
 -15.000  -1.7631   0.04624   0.04186   0.0026   0.7013   0.0084
 -14.500  -1.7637   0.04212   0.03759   0.0064   0.7000   0.0086
 -14.000  -1.7592   0.03870   0.03401   0.0105   0.6987   0.0088
 -13.500  -1.7498   0.03575   0.03092   0.0148   0.6974   0.0090
 -13.000  -1.7364   0.03318   0.02822   0.0191   0.6958   0.0091
 -12.500  -1.7185   0.03097   0.02587   0.0233   0.6940   0.0093
 -12.000  -1.6966   0.02908   0.02386   0.0273   0.6920   0.0095
 -11.500  -1.6712   0.02744   0.02211   0.0311   0.6904   0.0096
 -11.000  -1.6517   0.02523   0.01972   0.0359   0.6890   0.0101
 -10.500  -1.6235   0.02366   0.01806   0.0397   0.6868   0.0106
 -10.000  -1.5907   0.02238   0.01672   0.0432   0.6844   0.0110
  -9.500  -1.5554   0.02126   0.01552   0.0464   0.6822   0.0115
  -9.000  -1.5182   0.02025   0.01443   0.0494   0.6801   0.0118
  -8.500  -1.4785   0.01940   0.01352   0.0521   0.6777   0.0121
  -8.000  -1.4402   0.01820   0.01224   0.0551   0.6744   0.0131
  -7.500  -1.3984   0.01733   0.01134   0.0576   0.6710   0.0139
  -7.000  -1.3550   0.01658   0.01053   0.0599   0.6675   0.0146
  -6.500  -1.3103   0.01592   0.00983   0.0621   0.6638   0.0150
  -6.000  -1.2656   0.01506   0.00894   0.0642   0.6597   0.0166
  -5.500  -1.2194   0.01443   0.00828   0.0662   0.6550   0.0177
  -5.000  -1.1725   0.01385   0.00767   0.0681   0.6501   0.0188
  -4.500  -1.1257   0.01321   0.00703   0.0700   0.6445   0.0209
  -4.000  -1.0791   0.01275   0.00653   0.0720   0.6375   0.0222
  -3.500  -1.0330   0.01219   0.00598   0.0742   0.6316   0.0252
  -3.000  -0.9845   0.01173   0.00550   0.0759   0.6234   0.0280
  -2.500  -0.9352   0.01127   0.00506   0.0774   0.6157   0.0315
  -2.000  -0.8858   0.01082   0.00462   0.0789   0.6058   0.0366
  -1.500  -0.8360   0.01040   0.00423   0.0803   0.5966   0.0432
  -1.000  -0.7860   0.01001   0.00386   0.0817   0.5854   0.0515
  -0.500  -0.7357   0.00963   0.00351   0.0830   0.5739   0.0623
  -0.000  -0.6858   0.00923   0.00319   0.0844   0.5620   0.0795
   0.500  -0.6353   0.00888   0.00289   0.0857   0.5491   0.0987
   1.000  -0.5853   0.00851   0.00261   0.0870   0.5351   0.1277
   1.500  -0.5355   0.00811   0.00235   0.0884   0.5215   0.1671
   2.000  -0.4856   0.00771   0.00211   0.0897   0.5084   0.2156
   2.500  -0.4357   0.00730   0.00189   0.0910   0.4950   0.2770
   3.000  -0.3875   0.00676   0.00165   0.0925   0.4813   0.3702
   3.500  -0.3540   0.00498   0.00099   0.0966   0.4678   0.7190
   4.000  -0.2949   0.00517   0.00113   0.0962   0.4546   0.7322
   4.500  -0.2364   0.00531   0.00123   0.0958   0.4407   0.7379
   5.000  -0.1777   0.00554   0.00144   0.0955   0.4259   0.7436
   5.500  -0.1188   0.00582   0.00167   0.0951   0.4090   0.7473
   6.000  -0.0600   0.00604   0.00183   0.0946   0.3896   0.7492
   6.500  -0.0023   0.00606   0.00178   0.0942   0.3659   0.7526
   7.000   0.0559   0.00629   0.00199   0.0938   0.3419   0.7567
   7.500   0.1141   0.00665   0.00229   0.0933   0.3129   0.7608
   8.000   0.1719   0.00685   0.00237   0.0927   0.2802   0.7604
   8.500   0.2294   0.00707   0.00247   0.0921   0.2454   0.7596
   9.000   0.2865   0.00739   0.00262   0.0915   0.2056   0.7589
   9.500   0.3434   0.00772   0.00282   0.0909   0.1687   0.7581
  10.000   0.3998   0.00814   0.00308   0.0903   0.1318   0.7574
  10.500   0.4558   0.00859   0.00338   0.0897   0.1009   0.7566
  11.000   0.5119   0.00900   0.00370   0.0891   0.0795   0.7559
  11.500   0.5676   0.00946   0.00406   0.0885   0.0618   0.7552
  12.000   0.6231   0.00992   0.00445   0.0879   0.0501   0.7546
  12.500   0.6781   0.01041   0.00490   0.0873   0.0410   0.7539
  13.000   0.7330   0.01091   0.00538   0.0867   0.0348   0.7533
  13.500   0.7874   0.01144   0.00590   0.0861   0.0300   0.7527
  14.000   0.8412   0.01201   0.00648   0.0855   0.0264   0.7522
  14.500   0.8940   0.01272   0.00719   0.0850   0.0228   0.7516
  15.000   0.9471   0.01330   0.00780   0.0844   0.0212   0.7511
  15.500   0.9981   0.01414   0.00867   0.0839   0.0188   0.7506
  16.000   1.0495   0.01484   0.00942   0.0834   0.0178   0.7502
  16.500   1.0987   0.01579   0.01041   0.0829   0.0163   0.7498
  17.000   1.1465   0.01684   0.01153   0.0823   0.0152   0.7494
  17.500   1.1939   0.01786   0.01262   0.0817   0.0144   0.7490
  18.000   1.2380   0.01925   0.01407   0.0809   0.0134   0.7487
  18.500   1.2774   0.02141   0.01635   0.0791   0.0125   0.7484
  19.000   1.3156   0.02380   0.01885   0.0762   0.0121   0.7483
  19.500   1.3297   0.02815   0.02333   0.0725   0.0118   0.7481
  20.000   1.3394   0.03266   0.02795   0.0700   0.0115   0.7479
  20.500   1.3415   0.03792   0.03332   0.0676   0.0111   0.7477
  21.000   1.3357   0.04412   0.03965   0.0649   0.0108   0.7475
  21.500   1.3218   0.05164   0.04731   0.0615   0.0105   0.7473
  22.000   1.2969   0.06102   0.05686   0.0571   0.0102   0.7471
  22.500   1.2617   0.07235   0.06839   0.0517   0.0099   0.7468
  23.000   1.2351   0.08286   0.07907   0.0466   0.0099   0.7466
  23.500   1.1987   0.09526   0.09165   0.0406   0.0099   0.7464
  24.000   1.1588   0.10866   0.10523   0.0340   0.0098   0.7462
  24.500   1.1162   0.12308   0.11983   0.0267   0.0098   0.7460
  25.000   1.0757   0.13785   0.13478   0.0189   0.0097   0.7458
