  
       XFOIL         Version 6.99
  
 Calculated polar for: NACA 2412                                       
  
 1 1 Reynolds number fixed          Mach number fixed         
  
 xtrf =   1.000 (top)        1.000 (bottom)  
 Mach =   0.000     Re =     2.332 e 6     Ncrit =   9.000
  
   alpha    CL        CD       CDp       CM     Top_Xtr  Bot_Xtr
  ------ -------- --------- --------- -------- -------- --------
  -5.000  -0.1694   0.00664   0.00167  -0.0754   0.8236   0.0715
  -4.500  -0.1123   0.00638   0.00146  -0.0756   0.8146   0.0895
  -4.000  -0.0550   0.00614   0.00129  -0.0758   0.8055   0.1114
  -3.500   0.0020   0.00592   0.00114  -0.0759   0.7940   0.1402
  -3.000   0.0594   0.00568   0.00101  -0.0762   0.7823   0.1761
  -2.500   0.1166   0.00549   0.00091  -0.0764   0.7674   0.2166
  -2.000   0.1732   0.00534   0.00084  -0.0764   0.7448   0.2623
  -1.500   0.2275   0.00538   0.00079  -0.0760   0.6749   0.3126
  -1.000   0.2821   0.00544   0.00083  -0.0758   0.6231   0.3706
  -0.500   0.3371   0.00540   0.00087  -0.0756   0.5819   0.4499
   0.000   0.3923   0.00537   0.00094  -0.0755   0.5450   0.5344
   0.500   0.4477   0.00540   0.00103  -0.0754   0.5121   0.6021
   1.000   0.5033   0.00549   0.00115  -0.0753   0.4820   0.6532
   1.500   0.5591   0.00566   0.00128  -0.0751   0.4529   0.6877
   2.000   0.6147   0.00585   0.00140  -0.0750   0.4233   0.7081
   2.500   0.6694   0.00601   0.00154  -0.0747   0.3911   0.7381
   3.000   0.7168   0.00585   0.00178  -0.0728   0.3541   0.9254
   4.000   0.8358   0.00674   0.00233  -0.0746   0.2581   1.0000
   4.500   0.8851   0.00732   0.00266  -0.0734   0.2087   1.0000
   5.000   0.9343   0.00796   0.00306  -0.0722   0.1614   1.0000
   5.500   0.9835   0.00860   0.00350  -0.0710   0.1213   1.0000
   6.000   1.0328   0.00926   0.00397  -0.0699   0.0903   1.0000
   6.500   1.0823   0.00987   0.00445  -0.0688   0.0688   1.0000
   7.000   1.1319   0.01045   0.00494  -0.0678   0.0541   1.0000
   7.500   1.1809   0.01105   0.00546  -0.0667   0.0436   1.0000
   8.000   1.2292   0.01167   0.00603  -0.0654   0.0357   1.0000
   8.500   1.2769   0.01229   0.00661  -0.0642   0.0304   1.0000
   9.000   1.3239   0.01291   0.00723  -0.0628   0.0267   1.0000
   9.500   1.3695   0.01358   0.00789  -0.0612   0.0235   1.0000
  10.000   1.4126   0.01436   0.00867  -0.0592   0.0205   1.0000
  10.500   1.4555   0.01505   0.00938  -0.0572   0.0191   1.0000
  11.000   1.4913   0.01596   0.01032  -0.0540   0.0171   1.0000
  11.500   1.5275   0.01674   0.01114  -0.0510   0.0162   1.0000
  12.000   1.5602   0.01775   0.01218  -0.0476   0.0150   1.0000
  12.500   1.5897   0.01898   0.01348  -0.0440   0.0139   1.0000
  13.000   1.6205   0.02016   0.01473  -0.0408   0.0133   1.0000
  13.500   1.6478   0.02161   0.01623  -0.0375   0.0126   1.0000
  14.000   1.6704   0.02345   0.01814  -0.0340   0.0118   1.0000
  14.500   1.6905   0.02557   0.02037  -0.0306   0.0112   1.0000
  15.000   1.7121   0.02767   0.02256  -0.0278   0.0109   1.0000
