  
       XFOIL         Version 6.99
  
 Calculated polar for: NACA 2412                                       
  
 1 1 Reynolds number fixed          Mach number fixed         
  
 xtrf =   1.000 (top)        1.000 (bottom)  
 Mach =   0.000     Re =     2.332 e 6     Ncrit =   9.000
  
   alpha    CL        CD       CDp       CM     Top_Xtr  Bot_Xtr
  ------ -------- --------- --------- -------- -------- --------
 -15.000  -1.4990   0.02369   0.01960  -0.0408   1.0000   0.0100
 -14.500  -1.4736   0.02224   0.01805  -0.0371   1.0000   0.0103
 -14.000  -1.4391   0.02096   0.01667  -0.0346   1.0000   0.0106
 -13.500  -1.4010   0.01981   0.01543  -0.0324   1.0000   0.0109
 -13.000  -1.3599   0.01879   0.01433  -0.0305   1.0000   0.0110
 -12.500  -1.3235   0.01721   0.01261  -0.0280   1.0000   0.0118
 -12.000  -1.2807   0.01620   0.01153  -0.0262   1.0000   0.0124
 -11.500  -1.2364   0.01536   0.01064  -0.0244   1.0000   0.0129
 -11.000  -1.1923   0.01462   0.00984  -0.0225   1.0000   0.0134
 -10.500  -1.1483   0.01398   0.00915  -0.0203   1.0000   0.0137
 -10.000  -1.1079   0.01305   0.00816  -0.0175   1.0000   0.0149
  -9.500  -1.0594   0.01241   0.00751  -0.0163   0.9995   0.0159
  -9.000  -0.9961   0.01182   0.00688  -0.0181   0.9973   0.0166
  -8.500  -0.9318   0.01103   0.00608  -0.0202   0.9946   0.0183
  -8.000  -0.8688   0.01047   0.00551  -0.0219   0.9888   0.0197
  -7.500  -0.8083   0.00989   0.00491  -0.0230   0.9761   0.0218
  -7.000  -0.7540   0.00947   0.00444  -0.0225   0.9435   0.0237
  -6.500  -0.7066   0.00930   0.00393  -0.0204   0.8305   0.0263
  -6.000  -0.6545   0.00922   0.00355  -0.0196   0.7420   0.0288
  -5.500  -0.5999   0.00889   0.00319  -0.0193   0.7262   0.0331
  -5.000  -0.5448   0.00857   0.00285  -0.0190   0.7167   0.0384
  -4.500  -0.4892   0.00825   0.00256  -0.0189   0.7090   0.0453
  -4.000  -0.4335   0.00799   0.00230  -0.0187   0.7010   0.0536
  -3.500  -0.3773   0.00765   0.00203  -0.0187   0.6924   0.0669
  -3.000  -0.3211   0.00735   0.00180  -0.0186   0.6817   0.0833
  -2.500  -0.2648   0.00706   0.00158  -0.0186   0.6679   0.1059
  -2.000  -0.2085   0.00680   0.00140  -0.0185   0.6510   0.1340
  -1.500  -0.1523   0.00657   0.00124  -0.0185   0.6310   0.1694
  -1.000  -0.0964   0.00635   0.00111  -0.0185   0.6087   0.2134
  -0.500  -0.0402   0.00615   0.00101  -0.0184   0.5862   0.2637
  -0.000   0.0158   0.00597   0.00094  -0.0184   0.5619   0.3227
   0.500   0.0714   0.00574   0.00088  -0.0184   0.5386   0.4024
   1.000   0.1259   0.00537   0.00084  -0.0182   0.5153   0.5321
   1.500   0.1783   0.00482   0.00082  -0.0176   0.4926   0.7348
   2.000   0.2350   0.00482   0.00088  -0.0176   0.4717   0.7791
   2.500   0.2923   0.00491   0.00094  -0.0177   0.4502   0.8005
   3.000   0.3494   0.00504   0.00102  -0.0178   0.4272   0.8177
   3.500   0.4065   0.00516   0.00111  -0.0179   0.4037   0.8322
   4.000   0.4630   0.00535   0.00123  -0.0180   0.3729   0.8463
   4.500   0.5189   0.00558   0.00138  -0.0180   0.3387   0.8611
   5.000   0.5737   0.00589   0.00158  -0.0178   0.2975   0.8804
   6.000   0.6793   0.00663   0.00213  -0.0166   0.2114   0.9310
   6.500   0.7307   0.00712   0.00247  -0.0157   0.1674   0.9506
   7.000   0.7813   0.00767   0.00285  -0.0148   0.1277   0.9697
   7.500   0.8363   0.00823   0.00327  -0.0149   0.0961   0.9840
   8.000   0.8956   0.00884   0.00373  -0.0161   0.0717   0.9930
   8.500   0.9589   0.00942   0.00422  -0.0182   0.0552   0.9964
   9.000   1.0211   0.01004   0.00475  -0.0202   0.0433   0.9996
   9.500   1.0685   0.01058   0.00524  -0.0188   0.0358   1.0000
  10.000   1.1147   0.01113   0.00577  -0.0173   0.0307   1.0000
  10.500   1.1628   0.01169   0.00632  -0.0162   0.0272   1.0000
  11.000   1.2110   0.01231   0.00693  -0.0152   0.0241   1.0000
  11.500   1.2580   0.01302   0.00764  -0.0141   0.0211   1.0000
  12.000   1.3053   0.01368   0.00831  -0.0131   0.0195   1.0000
  12.500   1.3500   0.01452   0.00917  -0.0118   0.0175   1.0000
  13.000   1.3950   0.01525   0.00994  -0.0105   0.0164   1.0000
  13.500   1.4359   0.01622   0.01093  -0.0088   0.0149   1.0000
  14.000   1.4758   0.01715   0.01192  -0.0069   0.0141   1.0000
  14.500   1.5120   0.01813   0.01296  -0.0046   0.0134   1.0000
  15.000   1.5391   0.01935   0.01423  -0.0009   0.0126   1.0000
  15.500   1.5590   0.02112   0.01610   0.0030   0.0117   1.0000
  16.000   1.5841   0.02276   0.01784   0.0056   0.0115   1.0000
  16.500   1.6056   0.02490   0.02007   0.0078   0.0111   1.0000
  17.000   1.6234   0.02769   0.02296   0.0091   0.0106   1.0000
  17.500   1.6365   0.03139   0.02678   0.0095   0.0102   1.0000
  18.000   1.6410   0.03626   0.03179   0.0094   0.0098   1.0000
  18.500   1.6327   0.04265   0.03837   0.0088   0.0094   1.0000
  19.000   1.6305   0.04859   0.04445   0.0078   0.0093   1.0000
  19.500   1.6210   0.05568   0.05171   0.0061   0.0092   1.0000
  20.000   1.6060   0.06387   0.06008   0.0037   0.0090   1.0000
  20.500   1.5833   0.07353   0.06993   0.0003   0.0089   1.0000
  21.000   1.5535   0.08458   0.08118  -0.0039   0.0088   1.0000
  21.500   1.5177   0.09692   0.09374  -0.0090   0.0087   1.0000
  22.000   1.4756   0.11065   0.10769  -0.0151   0.0086   1.0000
  22.500   1.4279   0.12593   0.12320  -0.0225   0.0086   1.0000
  23.000   1.3782   0.14232   0.13981  -0.0312   0.0086   1.0000
  23.500   1.3343   0.15835   0.15605  -0.0406   0.0085   1.0000
  24.000   1.2949   0.17449   0.17238  -0.0508   0.0084   1.0000
  24.500   1.2624   0.18992   0.18799  -0.0612   0.0083   1.0000
  25.000   1.2358   0.20485   0.20306  -0.0716   0.0082   1.0000
