  
       XFOIL         Version 6.99
  
 Calculated polar for: NACA 0012                                       
  
 1 1 Reynolds number fixed          Mach number fixed         
  
 xtrf =   1.000 (top)        1.000 (bottom)  
 Mach =   0.000     Re =     1.521 e 6     Ncrit =   9.000
  
   alpha    CL        CD       CDp       CM     Top_Xtr  Bot_Xtr
  ------ -------- --------- --------- -------- -------- --------
 -12.000  -1.3810   0.01836   0.01300   0.0051   1.0000   0.0157
 -11.500  -1.3401   0.01742   0.01198   0.0072   1.0000   0.0164
 -11.000  -1.2992   0.01635   0.01083   0.0093   1.0000   0.0174
 -10.500  -1.2559   0.01541   0.00986   0.0111   1.0000   0.0188
 -10.000  -1.2094   0.01472   0.00911   0.0125   1.0000   0.0200
  -9.500  -1.1643   0.01381   0.00817   0.0142   1.0000   0.0219
  -9.000  -1.1165   0.01316   0.00749   0.0155   1.0000   0.0237
  -8.500  -1.0695   0.01243   0.00674   0.0170   1.0000   0.0263
  -8.000  -1.0210   0.01188   0.00618   0.0183   1.0000   0.0289
  -7.500  -0.9742   0.01125   0.00557   0.0200   1.0000   0.0329
  -7.000  -0.9278   0.01070   0.00504   0.0218   1.0000   0.0379
  -6.500  -0.8816   0.01019   0.00456   0.0238   1.0000   0.0442
  -6.000  -0.8359   0.00970   0.00413   0.0258   1.0000   0.0524
  -5.500  -0.7817   0.00922   0.00371   0.0261   0.9989   0.0642
  -5.000  -0.7125   0.00865   0.00328   0.0229   0.9949   0.0848
  -4.500  -0.6448   0.00808   0.00287   0.0202   0.9884   0.1138
  -4.000  -0.5807   0.00752   0.00250   0.0182   0.9734   0.1524
  -3.500  -0.5246   0.00704   0.00216   0.0183   0.9328   0.1973
  -3.000  -0.4777   0.00687   0.00184   0.0206   0.8152   0.2454
  -2.500  -0.4260   0.00669   0.00161   0.0215   0.7436   0.2985
  -2.000  -0.3722   0.00641   0.00144   0.0219   0.7181   0.3548
  -1.500  -0.3176   0.00613   0.00130   0.0222   0.7005   0.4128
  -1.000  -0.2627   0.00583   0.00118   0.0225   0.6810   0.4727
  -0.500  -0.2077   0.00556   0.00107   0.0227   0.6551   0.5349
  -0.000  -0.1530   0.00532   0.00097   0.0231   0.6233   0.6015
