  
       XFOIL         Version 6.99
  
 Calculated polar for: NACA 0012                                       
  
 1 1 Reynolds number fixed          Mach number fixed         
  
 xtrf =   1.000 (top)        1.000 (bottom)  
 Mach =   0.000     Re =     2.332 e 6     Ncrit =   9.000
  
   alpha    CL        CD       CDp       CM     Top_Xtr  Bot_Xtr
  ------ -------- --------- --------- -------- -------- --------
 -12.000  -1.1017   0.01276   0.00782  -0.0342   0.9954   0.0171
 -11.500  -1.0411   0.01200   0.00703  -0.0360   0.9924   0.0186
 -10.500  -0.9282   0.01076   0.00575  -0.0373   0.9748   0.0223
 -10.000  -0.8764   0.01024   0.00521  -0.0368   0.9605   0.0246
  -9.500  -0.8252   0.00975   0.00469  -0.0360   0.9445   0.0277
  -9.000  -0.7726   0.00933   0.00422  -0.0355   0.9288   0.0311
  -8.500  -0.7191   0.00894   0.00380  -0.0352   0.9145   0.0351
  -8.000  -0.6651   0.00854   0.00339  -0.0349   0.9016   0.0416
  -7.500  -0.6106   0.00816   0.00301  -0.0347   0.8894   0.0502
  -7.000  -0.5560   0.00778   0.00266  -0.0346   0.8755   0.0623
  -6.500  -0.5005   0.00744   0.00235  -0.0345   0.8629   0.0761
  -6.000  -0.4451   0.00707   0.00206  -0.0345   0.8529   0.0983
  -5.500  -0.3893   0.00671   0.00179  -0.0345   0.8435   0.1258
  -5.000  -0.3331   0.00637   0.00156  -0.0346   0.8356   0.1594
  -4.500  -0.2770   0.00602   0.00136  -0.0347   0.8273   0.2005
  -4.000  -0.2204   0.00570   0.00119  -0.0349   0.8191   0.2449
  -3.500  -0.1636   0.00543   0.00105  -0.0350   0.8105   0.2892
  -3.000  -0.1065   0.00518   0.00094  -0.0352   0.8012   0.3347
  -2.500  -0.0497   0.00498   0.00085  -0.0353   0.7890   0.3800
  -2.000   0.0076   0.00480   0.00079  -0.0355   0.7750   0.4237
  -1.500   0.0647   0.00468   0.00074  -0.0356   0.7543   0.4651
  -1.000   0.1182   0.00490   0.00074  -0.0350   0.6459   0.5039
  -0.500   0.1723   0.00516   0.00082  -0.0346   0.5621   0.5415
  -0.000   0.2272   0.00537   0.00091  -0.0343   0.4955   0.5764
