  
       XFOIL         Version 6.99
  
 Calculated polar for: NACA 2412                                       
  
 1 1 Reynolds number fixed          Mach number fixed         
  
 xtrf =   1.000 (top)        1.000 (bottom)  
 Mach =   0.000     Re =     1.521 e 6     Ncrit =   9.000
  
   alpha    CL        CD       CDp       CM     Top_Xtr  Bot_Xtr
  ------ -------- --------- --------- -------- -------- --------
  -5.000  -0.8184   0.01152   0.00510   0.0204   0.6923   0.0304
  -4.500  -0.7650   0.01107   0.00464   0.0211   0.6873   0.0337
  -4.000  -0.7118   0.01054   0.00415   0.0217   0.6820   0.0392
  -3.500  -0.6580   0.01007   0.00370   0.0223   0.6753   0.0461
  -3.000  -0.6038   0.00964   0.00331   0.0228   0.6680   0.0547
  -2.500  -0.5498   0.00921   0.00294   0.0233   0.6591   0.0686
  -2.000  -0.4954   0.00881   0.00262   0.0238   0.6488   0.0860
  -1.500  -0.4411   0.00843   0.00232   0.0243   0.6373   0.1108
  -1.000  -0.3868   0.00807   0.00206   0.0247   0.6239   0.1429
  -0.500  -0.3326   0.00771   0.00182   0.0252   0.6088   0.1850
   0.000  -0.2785   0.00735   0.00163   0.0256   0.5925   0.2379
   0.500  -0.2247   0.00700   0.00146   0.0261   0.5752   0.3036
   1.000  -0.1716   0.00657   0.00130   0.0266   0.5575   0.3952
   1.500  -0.1234   0.00564   0.00103   0.0279   0.5398   0.6025
   2.000  -0.0716   0.00521   0.00102   0.0289   0.5216   0.7618
   2.500  -0.0140   0.00530   0.00106   0.0288   0.5033   0.7764
   3.000   0.0440   0.00540   0.00110   0.0286   0.4849   0.7857
   3.500   0.1018   0.00551   0.00116   0.0284   0.4665   0.7932
   4.000   0.1598   0.00566   0.00124   0.0281   0.4475   0.7984
   4.500   0.2173   0.00577   0.00131   0.0279   0.4272   0.8056
   5.000   0.2748   0.00594   0.00143   0.0277   0.4048   0.8113
   5.500   0.3323   0.00615   0.00155   0.0274   0.3775   0.8153
   6.000   0.3894   0.00640   0.00169   0.0271   0.3448   0.8179
   6.500   0.4464   0.00671   0.00186   0.0267   0.3088   0.8175
   7.000   0.5029   0.00706   0.00207   0.0264   0.2683   0.8170
   7.500   0.5585   0.00751   0.00234   0.0261   0.2239   0.8169
   8.000   0.6134   0.00804   0.00268   0.0259   0.1793   0.8169
   8.500   0.6675   0.00864   0.00308   0.0258   0.1363   0.8169
   9.000   0.7214   0.00923   0.00353   0.0258   0.1031   0.8169
  10.500   0.8809   0.01103   0.00508   0.0257   0.0486   0.8182
  11.000   0.9332   0.01165   0.00567   0.0258   0.0403   0.8192
  11.500   0.9848   0.01229   0.00631   0.0260   0.0342   0.8204
  12.000   1.0358   0.01294   0.00700   0.0261   0.0299   0.8219
  12.500   1.0855   0.01370   0.00778   0.0265   0.0263   0.8237
  13.000   1.1341   0.01449   0.00860   0.0269   0.0235   0.8258
  13.500   1.1818   0.01530   0.00950   0.0274   0.0216   0.8286
  14.000   1.2274   0.01625   0.01049   0.0281   0.0197   0.8320
  15.000   1.3128   0.01828   0.01274   0.0300   0.0171   0.8462
