  
       XFOIL         Version 6.99
  
 Calculated polar for: NACA 0012                                       
  
 1 1 Reynolds number fixed          Mach number fixed         
  
 xtrf =   1.000 (top)        1.000 (bottom)  
 Mach =   0.000     Re =     2.332 e 6     Ncrit =   9.000
  
   alpha    CL        CD       CDp       CM     Top_Xtr  Bot_Xtr
  ------ -------- --------- --------- -------- -------- --------
 -12.000  -0.6090   0.01028   0.00489  -0.1066   0.7684   0.0267
 -11.500  -0.5531   0.00986   0.00447  -0.1072   0.7687   0.0296
 -11.000  -0.4971   0.00942   0.00405  -0.1077   0.7691   0.0342
 -10.500  -0.4407   0.00904   0.00368  -0.1083   0.7694   0.0398
 -10.000  -0.3840   0.00869   0.00336  -0.1088   0.7697   0.0469
  -9.500  -0.3270   0.00837   0.00309  -0.1094   0.7699   0.0563
  -9.000  -0.2697   0.00801   0.00278  -0.1100   0.7706   0.0694
  -8.500  -0.2123   0.00763   0.00249  -0.1105   0.7715   0.0874
  -8.000  -0.1547   0.00727   0.00224  -0.1111   0.7724   0.1103
  -7.500  -0.0969   0.00694   0.00202  -0.1117   0.7734   0.1390
  -7.000  -0.0389   0.00664   0.00185  -0.1123   0.7740   0.1727
  -6.500   0.0186   0.00645   0.00178  -0.1128   0.7707   0.2087
  -6.000   0.0767   0.00613   0.00159  -0.1133   0.7687   0.2478
  -5.500   0.1349   0.00584   0.00143  -0.1138   0.7671   0.2864
  -5.000   0.1933   0.00561   0.00131  -0.1143   0.7650   0.3238
  -4.500   0.2517   0.00541   0.00121  -0.1147   0.7626   0.3590
  -4.000   0.3101   0.00523   0.00113  -0.1151   0.7595   0.3927
  -3.500   0.3682   0.00513   0.00110  -0.1155   0.7551   0.4247
  -3.000   0.4267   0.00496   0.00105  -0.1158   0.7514   0.4534
  -2.500   0.4852   0.00482   0.00099  -0.1161   0.7444   0.4802
  -2.000   0.5432   0.00471   0.00095  -0.1163   0.7300   0.5056
  -1.500   0.5808   0.00604   0.00147  -0.1128   0.4976   0.5260
  -1.000   0.6283   0.00663   0.00177  -0.1111   0.4079   0.5463
  -0.500   0.6760   0.00718   0.00206  -0.1094   0.3340   0.5647
  -0.000   0.7239   0.00770   0.00237  -0.1077   0.2705   0.5814
