  
       XFOIL         Version 6.99
  
 Calculated polar for: NACA 0012                                       
  
 1 1 Reynolds number fixed          Mach number fixed         
  
 xtrf =   1.000 (top)        1.000 (bottom)  
 Mach =   0.000     Re =     2.332 e 6     Ncrit =   9.000
  
   alpha    CL        CD       CDp       CM     Top_Xtr  Bot_Xtr
  ------ -------- --------- --------- -------- -------- --------
 -12.000  -1.7455   0.02877   0.02302   0.0535   0.7048   0.0106
 -11.500  -1.7201   0.02707   0.02123   0.0572   0.7028   0.0111
 -11.000  -1.6919   0.02557   0.01964   0.0607   0.7007   0.0115
 -10.500  -1.6610   0.02425   0.01824   0.0640   0.6989   0.0119
 -10.000  -1.6309   0.02281   0.01671   0.0676   0.6966   0.0125
  -9.500  -1.5986   0.02151   0.01537   0.0710   0.6942   0.0134
  -9.000  -1.5628   0.02046   0.01426   0.0740   0.6921   0.0142
  -8.500  -1.5250   0.01955   0.01329   0.0767   0.6899   0.0148
  -8.000  -1.4882   0.01846   0.01217   0.0798   0.6870   0.0162
  -7.500  -1.4487   0.01758   0.01127   0.0824   0.6844   0.0174
  -7.000  -1.4076   0.01680   0.01044   0.0849   0.6820   0.0185
  -6.500  -1.3667   0.01595   0.00960   0.0875   0.6790   0.0206
  -6.000  -1.3236   0.01527   0.00889   0.0898   0.6753   0.0223
  -5.500  -1.2808   0.01452   0.00816   0.0922   0.6718   0.0253
  -5.000  -1.2366   0.01387   0.00751   0.0943   0.6678   0.0284
  -4.500  -1.1918   0.01326   0.00691   0.0964   0.6628   0.0321
  -4.000  -1.1465   0.01267   0.00633   0.0985   0.6573   0.0370
  -3.500  -1.1009   0.01209   0.00579   0.1006   0.6514   0.0439
  -3.000  -1.0557   0.01151   0.00527   0.1027   0.6442   0.0546
  -2.500  -1.0120   0.01098   0.00480   0.1052   0.6367   0.0675
  -2.000  -0.9684   0.01048   0.00438   0.1078   0.6275   0.0846
  -1.500  -0.9224   0.00994   0.00395   0.1099   0.6179   0.1096
  -1.000  -0.8766   0.00938   0.00354   0.1120   0.6060   0.1437
  -0.500  -0.8310   0.00882   0.00315   0.1141   0.5938   0.1867
  -0.000  -0.7855   0.00825   0.00278   0.1163   0.5801   0.2383
