  
       XFOIL         Version 6.99
  
 Calculated polar for: NACA 2412                                       
  
 1 1 Reynolds number fixed          Mach number fixed         
  
 xtrf =   1.000 (top)        1.000 (bottom)  
 Mach =   0.000     Re =     1.521 e 6     Ncrit =   9.000
  
   alpha    CL        CD       CDp       CM     Top_Xtr  Bot_Xtr
  ------ -------- --------- --------- -------- -------- --------
 -15.000  -0.3664   0.01592   0.01109  -0.2012   0.7594   0.0202
 -14.500  -0.3090   0.01483   0.00987  -0.2031   0.7599   0.0217
 -14.000  -0.2506   0.01396   0.00893  -0.2048   0.7605   0.0233
 -13.500  -0.1923   0.01331   0.00819  -0.2062   0.7612   0.0247
 -13.000  -0.1342   0.01256   0.00742  -0.2077   0.7619   0.0276
 -12.500  -0.0765   0.01209   0.00689  -0.2088   0.7627   0.0301
 -12.000  -0.0190   0.01171   0.00652  -0.2099   0.7636   0.0336
 -11.500   0.0382   0.01141   0.00623  -0.2109   0.7644   0.0381
 -11.000   0.0953   0.01121   0.00604  -0.2117   0.7653   0.0434
 -10.500   0.1524   0.01108   0.00594  -0.2125   0.7663   0.0504
 -10.000   0.2096   0.01098   0.00588  -0.2133   0.7673   0.0595
  -9.500   0.2664   0.01092   0.00589  -0.2140   0.7683   0.0721
  -9.000   0.3229   0.01092   0.00595  -0.2145   0.7693   0.0872
  -8.500   0.3803   0.01079   0.00590  -0.2152   0.7696   0.1083
  -8.000   0.4397   0.01043   0.00561  -0.2161   0.7686   0.1343
  -7.500   0.4987   0.01016   0.00541  -0.2169   0.7681   0.1630
  -7.000   0.5574   0.00992   0.00527  -0.2177   0.7679   0.1980
  -6.500   0.6165   0.00966   0.00510  -0.2185   0.7678   0.2336
  -6.000   0.6756   0.00942   0.00496  -0.2192   0.7682   0.2720
  -5.500   0.7349   0.00916   0.00480  -0.2200   0.7685   0.3114
  -5.000   0.7940   0.00887   0.00461  -0.2206   0.7678   0.3503
  -4.500   0.8535   0.00856   0.00438  -0.2213   0.7665   0.3894
  -4.000   0.9141   0.00814   0.00404  -0.2221   0.7641   0.4335
  -3.500   0.9733   0.00801   0.00398  -0.2226   0.7607   0.4750
  -3.000   1.0305   0.00772   0.00379  -0.2227   0.7575   0.5084
  -2.000   1.1462   0.00680   0.00294  -0.2229   0.7439   0.5560
  -1.500   1.2010   0.00642   0.00266  -0.2223   0.7288   0.5729
  -1.000   1.1637   0.00890   0.00435  -0.2031   0.5348   0.5829
  -0.500   1.1654   0.01088   0.00614  -0.1930   0.4759   0.5936
  -0.000   1.1774   0.01308   0.00818  -0.1857   0.4313   0.6042
   0.500   1.1982   0.01502   0.00999  -0.1800   0.3876   0.6136
   1.000   1.2199   0.01682   0.01156  -0.1745   0.3377   0.6222
   1.500   1.2436   0.01839   0.01288  -0.1692   0.2827   0.6298
   2.000   1.2710   0.01972   0.01392  -0.1644   0.2262   0.6370
   2.500   1.3014   0.02092   0.01483  -0.1601   0.1727   0.6428
   3.000   1.3341   0.02206   0.01572  -0.1563   0.1274   0.6483
   3.500   1.3685   0.02316   0.01661  -0.1527   0.0929   0.6539
   4.500   1.4410   0.02527   0.01852  -0.1464   0.0551   0.6620
   5.000   1.4773   0.02635   0.01952  -0.1433   0.0441   0.6661
   5.500   1.5133   0.02745   0.02059  -0.1403   0.0363   0.6690
   6.000   1.5493   0.02857   0.02171  -0.1373   0.0314   0.6713
   6.500   1.5843   0.02976   0.02292  -0.1342   0.0276   0.6742
   7.000   1.6165   0.03113   0.02431  -0.1308   0.0243   0.6775
   7.500   1.6487   0.03251   0.02572  -0.1275   0.0219   0.6799
   8.000   1.6796   0.03400   0.02727  -0.1240   0.0199   0.6821
   8.500   1.7088   0.03558   0.02891  -0.1205   0.0184   0.6849
   9.000   1.7333   0.03757   0.03095  -0.1165   0.0167   0.6878
   9.500   1.7613   0.03929   0.03276  -0.1131   0.0158   0.6896
  10.000   1.7843   0.04142   0.03497  -0.1092   0.0147   0.6920
  10.500   1.8007   0.04411   0.03776  -0.1046   0.0136   0.6944
  11.000   1.8225   0.04640   0.04016  -0.1010   0.0131   0.6963
  11.500   1.8396   0.04916   0.04304  -0.0970   0.0126   0.6984
  12.000   1.8540   0.05221   0.04619  -0.0930   0.0119   0.7008
  12.500   1.8594   0.05620   0.05031  -0.0886   0.0112   0.7025
  13.000   1.8636   0.06051   0.05480  -0.0846   0.0108   0.7041
  13.500   1.8702   0.06475   0.05919  -0.0813   0.0105   0.7061
  14.000   1.8716   0.06979   0.06441  -0.0783   0.0102   0.7077
  14.500   1.8688   0.07579   0.07059  -0.0761   0.0099   0.7091
  15.000   1.8613   0.08282   0.07780  -0.0749   0.0096   0.7103
  15.500   1.8482   0.09089   0.08607  -0.0746   0.0094   0.7115
  16.000   1.8277   0.10036   0.09576  -0.0757   0.0091   0.7126
  16.500   1.7985   0.11147   0.10711  -0.0783   0.0089   0.7136
  17.000   1.7615   0.12421   0.12011  -0.0829   0.0087   0.7142
  17.500   1.7287   0.13680   0.13296  -0.0886   0.0086   0.7150
  18.000   1.7061   0.14801   0.14439  -0.0945   0.0085   0.7158
  18.500   1.6826   0.15962   0.15621  -0.1014   0.0084   0.7166
  19.000   1.6586   0.17176   0.16856  -0.1094   0.0084   0.7172
  19.500   1.6343   0.18439   0.18140  -0.1185   0.0083   0.7179
  20.000   1.6114   0.19714   0.19435  -0.1282   0.0082   0.7184
  20.500   1.5912   0.20965   0.20704  -0.1382   0.0081   0.7191
  21.000   1.5713   0.22241   0.21998  -0.1489   0.0079   0.7198
  21.500   1.5561   0.23439   0.23212  -0.1592   0.0077   0.7207
  22.000   1.5410   0.24684   0.24470  -0.1701   0.0075   0.7214
  22.500   1.5289   0.25883   0.25683  -0.1807   0.0073   0.7220
  23.500   1.5106   0.28213   0.28034  -0.2018   0.0068   0.7232
  25.000   1.4488   0.37346   0.37196  -0.2676   0.0038   0.7204
