  
       XFOIL         Version 6.99
  
 Calculated polar for: NACA 0012                                       
  
 1 1 Reynolds number fixed          Mach number fixed         
  
 xtrf =   1.000 (top)        1.000 (bottom)  
 Mach =   0.000     Re =     2.332 e 6     Ncrit =   9.000
  
   alpha    CL        CD       CDp       CM     Top_Xtr  Bot_Xtr
  ------ -------- --------- --------- -------- -------- --------
 -12.000  -0.3203   0.01008   0.00491  -0.1496   0.7471   0.0377
 -11.500  -0.2634   0.00977   0.00463  -0.1504   0.7478   0.0443
 -11.000  -0.2062   0.00949   0.00439  -0.1512   0.7484   0.0525
 -10.500  -0.1490   0.00924   0.00419  -0.1519   0.7491   0.0635
 -10.000  -0.0917   0.00901   0.00403  -0.1527   0.7497   0.0779
  -9.500  -0.0343   0.00878   0.00389  -0.1534   0.7504   0.0986
  -9.000   0.0232   0.00858   0.00379  -0.1541   0.7511   0.1234
  -8.500   0.0807   0.00842   0.00375  -0.1547   0.7517   0.1530
  -8.000   0.1381   0.00830   0.00376  -0.1553   0.7523   0.1856
  -7.500   0.1954   0.00825   0.00383  -0.1559   0.7529   0.2214
  -7.000   0.2550   0.00781   0.00348  -0.1567   0.7522   0.2564
  -6.500   0.3157   0.00731   0.00303  -0.1576   0.7539   0.2916
  -6.000   0.3755   0.00691   0.00272  -0.1583   0.7540   0.3250
  -5.500   0.4353   0.00647   0.00236  -0.1590   0.7531   0.3573
  -5.000   0.4945   0.00613   0.00210  -0.1596   0.7512   0.3870
  -4.500   0.5534   0.00583   0.00186  -0.1600   0.7477   0.4130
  -4.000   0.6120   0.00557   0.00164  -0.1603   0.7432   0.4396
  -3.500   0.6699   0.00544   0.00158  -0.1606   0.7383   0.4625
  -3.000   0.7283   0.00517   0.00137  -0.1608   0.7299   0.4835
  -2.500   0.7610   0.00648   0.00199  -0.1562   0.5252   0.5011
  -1.500   0.8313   0.00822   0.00304  -0.1478   0.3323   0.5337
  -1.000   0.8628   0.00895   0.00355  -0.1428   0.2697   0.5486
  -0.500   0.8912   0.00973   0.00415  -0.1373   0.2173   0.5619
  -0.000   0.9261   0.01058   0.00482  -0.1333   0.1697   0.5742
