  
       XFOIL         Version 6.99
  
 Calculated polar for: NACA 2412                                       
  
 1 1 Reynolds number fixed          Mach number fixed         
  
 xtrf =   1.000 (top)        1.000 (bottom)  
 Mach =   0.000     Re =     2.332 e 6     Ncrit =   9.000
  
   alpha    CL        CD       CDp       CM     Top_Xtr  Bot_Xtr
  ------ -------- --------- --------- -------- -------- --------
 -15.000  -0.9147   0.01569   0.01102  -0.1227   0.7920   0.0130
 -14.500  -0.8658   0.01431   0.00952  -0.1230   0.7919   0.0140
 -14.000  -0.8133   0.01349   0.00864  -0.1234   0.7917   0.0148
 -13.500  -0.7597   0.01280   0.00789  -0.1238   0.7916   0.0155
 -13.000  -0.7051   0.01223   0.00725  -0.1242   0.7915   0.0159
 -12.500  -0.6515   0.01138   0.00634  -0.1246   0.7915   0.0175
 -12.000  -0.5961   0.01086   0.00579  -0.1251   0.7915   0.0187
 -11.500  -0.5404   0.01032   0.00520  -0.1255   0.7915   0.0199
 -11.000  -0.4844   0.00980   0.00466  -0.1260   0.7915   0.0218
 -10.500  -0.4276   0.00942   0.00425  -0.1265   0.7915   0.0231
 -10.000  -0.3709   0.00895   0.00378  -0.1270   0.7915   0.0262
  -9.500  -0.3137   0.00857   0.00339  -0.1276   0.7916   0.0290
  -9.000  -0.2562   0.00826   0.00308  -0.1281   0.7916   0.0320
  -8.500  -0.1987   0.00790   0.00275  -0.1286   0.7912   0.0372
  -8.000  -0.1411   0.00755   0.00243  -0.1291   0.7894   0.0432
  -7.500  -0.0832   0.00725   0.00216  -0.1296   0.7879   0.0511
  -7.000  -0.0251   0.00697   0.00193  -0.1301   0.7866   0.0613
  -6.500   0.0329   0.00669   0.00172  -0.1307   0.7854   0.0766
  -6.000   0.0912   0.00645   0.00154  -0.1312   0.7840   0.0935
  -5.500   0.1494   0.00620   0.00139  -0.1317   0.7823   0.1184
  -5.000   0.2076   0.00597   0.00126  -0.1322   0.7801   0.1474
  -4.500   0.2659   0.00580   0.00118  -0.1327   0.7769   0.1806
  -4.000   0.3244   0.00561   0.00110  -0.1333   0.7748   0.2168
  -3.500   0.3828   0.00537   0.00103  -0.1338   0.7723   0.2609
  -3.000   0.4412   0.00519   0.00097  -0.1342   0.7681   0.3034
  -2.500   0.4990   0.00503   0.00093  -0.1345   0.7621   0.3513
  -2.000   0.5572   0.00486   0.00091  -0.1349   0.7556   0.4066
  -1.500   0.6146   0.00469   0.00090  -0.1352   0.7427   0.4714
  -1.000   0.6599   0.00533   0.00115  -0.1330   0.6063   0.5217
  -0.500   0.7100   0.00577   0.00142  -0.1318   0.5406   0.5615
  -0.000   0.7614   0.00612   0.00165  -0.1308   0.4924   0.5928
   0.500   0.8133   0.00645   0.00187  -0.1299   0.4526   0.6167
   1.000   0.8646   0.00680   0.00212  -0.1290   0.4148   0.6357
   1.500   0.9149   0.00723   0.00239  -0.1278   0.3731   0.6505
   2.000   0.9632   0.00775   0.00272  -0.1262   0.3254   0.6624
   2.500   1.0101   0.00835   0.00311  -0.1244   0.2747   0.6712
   3.000   1.0553   0.00907   0.00357  -0.1224   0.2211   0.6786
   3.500   1.0991   0.00984   0.00409  -0.1201   0.1691   0.6844
   4.000   1.1430   0.01062   0.00463  -0.1178   0.1263   0.6901
   4.500   1.1872   0.01131   0.00516  -0.1156   0.0951   0.6964
   5.000   1.2294   0.01198   0.00570  -0.1131   0.0718   0.7007
   5.500   1.2694   0.01259   0.00625  -0.1101   0.0567   0.7047
   6.000   1.3115   0.01326   0.00686  -0.1076   0.0453   0.7084
   6.500   1.3536   0.01391   0.00750  -0.1052   0.0378   0.7129
   7.000   1.3945   0.01462   0.00820  -0.1026   0.0319   0.7170
   7.500   1.4344   0.01539   0.00897  -0.1000   0.0274   0.7217
   8.000   1.4734   0.01619   0.00979  -0.0973   0.0242   0.7280
   8.500   1.5118   0.01700   0.01068  -0.0946   0.0219   0.7422
   9.000   1.5445   0.01759   0.01175  -0.0909   0.0192   0.9999
   9.500   1.5808   0.01854   0.01275  -0.0881   0.0180   0.9999
  10.000   1.6131   0.01978   0.01400  -0.0848   0.0163   0.9999
  10.500   1.6456   0.02099   0.01527  -0.0816   0.0154   0.9999
  11.000   1.6765   0.02233   0.01665  -0.0784   0.0143   0.9999
  11.500   1.7020   0.02403   0.01840  -0.0746   0.0130   0.9999
  12.000   1.7297   0.02561   0.02005  -0.0713   0.0126   0.9999
  12.500   1.7547   0.02738   0.02190  -0.0679   0.0120   0.9999
  13.000   1.7761   0.02944   0.02403  -0.0642   0.0114   0.9999
  13.500   1.7917   0.03199   0.02666  -0.0602   0.0106   0.9999
  14.000   1.8068   0.03468   0.02947  -0.0565   0.0102   0.9999
  14.500   1.8227   0.03742   0.03232  -0.0532   0.0100   0.9999
  15.000   1.8354   0.04056   0.03556  -0.0500   0.0096   0.9999
  15.500   1.8447   0.04418   0.03929  -0.0471   0.0093   0.9999
  16.000   1.8485   0.04857   0.04380  -0.0444   0.0089   0.9999
  16.500   1.8455   0.05412   0.04950  -0.0424   0.0085   0.9999
  17.000   1.8320   0.06157   0.05715  -0.0415   0.0082   0.9999
  17.500   1.8236   0.06881   0.06457  -0.0417   0.0081   0.9999
  18.000   1.8117   0.07685   0.07279  -0.0426   0.0080   0.9999
  18.500   1.7919   0.08617   0.08231  -0.0445   0.0079   0.9999
  19.000   1.7653   0.09678   0.09313  -0.0475   0.0078   0.9999
  19.500   1.7333   0.10848   0.10505  -0.0515   0.0077   0.9999
  20.000   1.6989   0.12098   0.11776  -0.0566   0.0076   0.9999
  20.500   1.6612   0.13444   0.13145  -0.0631   0.0075   0.9999
  21.000   1.6220   0.14875   0.14598  -0.0711   0.0075   0.9999
  21.500   1.5843   0.16338   0.16084  -0.0802   0.0074   0.9999
  22.000   1.5429   0.17939   0.17707  -0.0912   0.0074   0.9999
  22.500   1.5065   0.19521   0.19310  -0.1028   0.0073   0.9999
  23.000   1.4732   0.21123   0.20930  -0.1152   0.0072   0.9999
  23.500   1.4453   0.22670   0.22495  -0.1276   0.0071   0.9999
  24.000   1.4271   0.24007   0.23845  -0.1386   0.0069   0.9999
  24.500   1.4129   0.25289   0.25138  -0.1493   0.0067   0.9999
  25.000   1.4035   0.26472   0.26330  -0.1593   0.0064   0.9999
