  
       XFOIL         Version 6.99
  
 Calculated polar for: NACA 0012                                       
  
 1 1 Reynolds number fixed          Mach number fixed         
  
 xtrf =   1.000 (top)        1.000 (bottom)  
 Mach =   0.000     Re =     1.521 e 6     Ncrit =   9.000
  
   alpha    CL        CD       CDp       CM     Top_Xtr  Bot_Xtr
  ------ -------- --------- --------- -------- -------- --------
 -12.000   0.0950   0.04473   0.04044  -0.2025   0.7684   0.0879
 -11.500   0.1619   0.04621   0.04199  -0.2050   0.7696   0.1132
 -11.000   0.2215   0.04754   0.04340  -0.2062   0.7700   0.1408
 -10.500   0.2776   0.04863   0.04456  -0.2068   0.7702   0.1700
 -10.000   0.3310   0.04961   0.04562  -0.2070   0.7704   0.1996
  -9.500   0.3828   0.05054   0.04664  -0.2068   0.7705   0.2329
  -9.000   0.4341   0.05144   0.04762  -0.2065   0.7705   0.2627
  -8.500   0.4850   0.05232   0.04858  -0.2060   0.7706   0.2917
  -8.000   0.5350   0.05310   0.04943  -0.2053   0.7706   0.3195
  -7.500   0.5811   0.05338   0.04976  -0.2040   0.7706   0.3422
  -7.000   0.6271   0.05363   0.05009  -0.2026   0.7705   0.3666
  -6.500   0.6720   0.05389   0.05043  -0.2009   0.7704   0.3868
  -6.000   0.7101   0.05388   0.05048  -0.1983   0.7702   0.4067
  -5.500   0.7002   0.05222   0.04889  -0.1886   0.7659   0.4170
  -5.000   0.7642   0.05140   0.04813  -0.1893   0.7611   0.4362
  -4.500   0.8780   0.04657   0.04335  -0.1960   0.7416   0.4606
  -4.000   0.9416   0.04421   0.04105  -0.1964   0.7302   0.4763
  -3.500   0.9309   0.04868   0.04563  -0.1874   0.7192   0.4852
  -3.000   1.0099   0.04443   0.03988  -0.1898   0.4248   0.5008
  -2.500   1.0532   0.04431   0.03922  -0.1874   0.3168   0.5122
  -2.000   1.0963   0.04432   0.03881  -0.1850   0.2366   0.5227
  -1.500   1.1416   0.04425   0.03846  -0.1828   0.1777   0.5337
  -1.000   1.1839   0.04447   0.03841  -0.1802   0.1295   0.5424
  -0.500   1.2263   0.04475   0.03850  -0.1776   0.0939   0.5516
  -0.000   1.2688   0.04508   0.03870  -0.1750   0.0720   0.5598
