  
       XFOIL         Version 6.99
  
 Calculated polar for: NACA 2412                                       
  
 1 1 Reynolds number fixed          Mach number fixed         
  
 xtrf =   1.000 (top)        1.000 (bottom)  
 Mach =   0.000     Re =     1.521 e 6     Ncrit =   9.000
  
   alpha    CL        CD       CDp       CM     Top_Xtr  Bot_Xtr
  ------ -------- --------- --------- -------- -------- --------
  -5.000  -1.0055   0.01328   0.00677   0.0463   0.6750   0.0248
  -4.500  -0.9552   0.01265   0.00614   0.0476   0.6704   0.0276
  -4.000  -0.9043   0.01208   0.00556   0.0487   0.6650   0.0309
  -3.500  -0.8525   0.01159   0.00507   0.0497   0.6586   0.0345
  -3.000  -0.8008   0.01109   0.00458   0.0507   0.6517   0.0398
  -2.500  -0.7487   0.01061   0.00413   0.0517   0.6434   0.0470
  -2.000  -0.6964   0.01017   0.00372   0.0526   0.6347   0.0562
  -1.500  -0.6442   0.00972   0.00333   0.0535   0.6242   0.0711
  -1.000  -0.5916   0.00932   0.00300   0.0544   0.6132   0.0888
  -0.500  -0.5393   0.00891   0.00269   0.0552   0.6011   0.1153
   0.000  -0.4870   0.00852   0.00240   0.0561   0.5875   0.1497
   0.500  -0.4350   0.00812   0.00215   0.0570   0.5731   0.1956
   1.000  -0.3833   0.00769   0.00192   0.0579   0.5584   0.2540
   1.500  -0.3321   0.00724   0.00171   0.0589   0.5432   0.3313
   2.000  -0.2846   0.00648   0.00143   0.0604   0.5279   0.4762
   2.500  -0.2415   0.00538   0.00115   0.0629   0.5130   0.7439
   3.000  -0.1837   0.00550   0.00122   0.0628   0.4970   0.7573
   3.500  -0.1255   0.00569   0.00131   0.0626   0.4809   0.7646
   4.000  -0.0676   0.00575   0.00136   0.0624   0.4649   0.7716
   4.500  -0.0095   0.00593   0.00150   0.0621   0.4482   0.7776
   5.000   0.0487   0.00614   0.00164   0.0618   0.4306   0.7808
   5.500   0.1068   0.00622   0.00166   0.0614   0.4114   0.7834
   6.000   0.1645   0.00635   0.00175   0.0611   0.3879   0.7876
   6.500   0.2221   0.00657   0.00192   0.0608   0.3615   0.7910
   7.000   0.2799   0.00677   0.00200   0.0603   0.3302   0.7899
   7.500   0.3374   0.00703   0.00213   0.0597   0.2947   0.7887
   8.000   0.3942   0.00737   0.00232   0.0592   0.2551   0.7875
   8.500   0.4507   0.00778   0.00256   0.0588   0.2134   0.7864
   9.000   0.5065   0.00828   0.00289   0.0583   0.1709   0.7852
   9.500   0.5615   0.00887   0.00329   0.0580   0.1301   0.7840
  10.000   0.6164   0.00945   0.00373   0.0576   0.0995   0.7829
  10.500   0.6708   0.01006   0.00422   0.0573   0.0755   0.7818
  11.000   0.7249   0.01064   0.00473   0.0570   0.0592   0.7811
  11.500   0.7785   0.01121   0.00526   0.0568   0.0475   0.7807
  12.000   0.8319   0.01179   0.00582   0.0565   0.0397   0.7803
  12.500   0.8844   0.01243   0.00645   0.0563   0.0338   0.7799
  13.000   0.9362   0.01311   0.00714   0.0562   0.0294   0.7794
  13.500   0.9879   0.01377   0.00784   0.0560   0.0265   0.7789
  14.000   1.0375   0.01462   0.00872   0.0560   0.0236   0.7785
  14.500   1.0868   0.01541   0.00957   0.0560   0.0217   0.7780
  15.000   1.1332   0.01648   0.01070   0.0561   0.0197   0.7775
