  
       XFOIL         Version 6.99
  
 Calculated polar for: NACA 0012                                       
  
 1 1 Reynolds number fixed          Mach number fixed         
  
 xtrf =   1.000 (top)        1.000 (bottom)  
 Mach =   0.000     Re =     2.332 e 6     Ncrit =   9.000
  
   alpha    CL        CD       CDp       CM     Top_Xtr  Bot_Xtr
  ------ -------- --------- --------- -------- -------- --------
 -12.000  -1.3497   0.01550   0.01037   0.0011   1.0000   0.0140
 -11.500  -1.3061   0.01456   0.00938   0.0028   1.0000   0.0152
 -11.000  -1.2596   0.01384   0.00864   0.0041   1.0000   0.0162
 -10.500  -1.2120   0.01319   0.00794   0.0054   1.0000   0.0170
 -10.000  -1.1653   0.01245   0.00721   0.0068   1.0000   0.0189
  -9.500  -1.1171   0.01192   0.00665   0.0081   1.0000   0.0201
  -9.000  -1.0714   0.01128   0.00602   0.0099   1.0000   0.0225
  -8.500  -1.0251   0.01082   0.00554   0.0118   1.0000   0.0241
  -8.000  -0.9808   0.01028   0.00503   0.0140   1.0000   0.0276
  -7.500  -0.9349   0.00982   0.00458   0.0160   0.9999   0.0311
  -7.000  -0.8705   0.00931   0.00411   0.0139   0.9979   0.0364
  -6.500  -0.8050   0.00882   0.00368   0.0116   0.9954   0.0439
  -6.000  -0.7385   0.00835   0.00328   0.0091   0.9930   0.0536
  -5.500  -0.6763   0.00788   0.00290   0.0077   0.9865   0.0681
  -5.000  -0.6167   0.00744   0.00257   0.0068   0.9752   0.0868
  -4.500  -0.5624   0.00704   0.00226   0.0073   0.9551   0.1114
  -4.000  -0.5112   0.00666   0.00196   0.0084   0.9207   0.1442
  -3.500  -0.4596   0.00639   0.00168   0.0095   0.8644   0.1822
  -3.000  -0.4075   0.00621   0.00145   0.0104   0.7892   0.2271
  -2.500  -0.3536   0.00602   0.00127   0.0108   0.7352   0.2754
  -2.000  -0.2986   0.00580   0.00113   0.0110   0.7066   0.3253
  -1.500  -0.2429   0.00557   0.00102   0.0112   0.6796   0.3772
  -1.000  -0.1874   0.00538   0.00091   0.0113   0.6450   0.4301
  -0.500  -0.1317   0.00524   0.00084   0.0114   0.6060   0.4836
  -0.000  -0.0761   0.00515   0.00080   0.0115   0.5629   0.5385
