  
       XFOIL         Version 6.99
  
 Calculated polar for: NACA 2412                                       
  
 1 1 Reynolds number fixed          Mach number fixed         
  
 xtrf =   1.000 (top)        1.000 (bottom)  
 Mach =   0.000     Re =     2.332 e 6     Ncrit =   9.000
  
   alpha    CL        CD       CDp       CM     Top_Xtr  Bot_Xtr
  ------ -------- --------- --------- -------- -------- --------
  -5.000   0.3596   0.00595   0.00140  -0.1553   0.7709   0.1884
  -4.500   0.4182   0.00575   0.00131  -0.1558   0.7691   0.2241
  -4.000   0.4767   0.00553   0.00122  -0.1564   0.7667   0.2674
  -3.500   0.5350   0.00537   0.00117  -0.1568   0.7639   0.3082
  -3.000   0.5932   0.00528   0.00118  -0.1573   0.7591   0.3530
  -2.500   0.6514   0.00505   0.00112  -0.1577   0.7560   0.4039
  -2.000   0.7094   0.00486   0.00108  -0.1580   0.7493   0.4610
  -1.500   0.7670   0.00474   0.00108  -0.1582   0.7378   0.5099
  -1.000   0.8046   0.00579   0.00155  -0.1545   0.5724   0.5433
  -0.500   0.8515   0.00633   0.00188  -0.1526   0.5071   0.5720
   0.000   0.8996   0.00678   0.00218  -0.1510   0.4591   0.5946
   0.500   0.9479   0.00719   0.00247  -0.1494   0.4189   0.6131
   1.000   0.9943   0.00768   0.00280  -0.1474   0.3760   0.6279
   1.500   1.0378   0.00827   0.00320  -0.1449   0.3262   0.6406
   2.000   1.0790   0.00895   0.00366  -0.1419   0.2750   0.6507
   2.500   1.1153   0.00969   0.00417  -0.1380   0.2232   0.6590
   3.000   1.1504   0.01053   0.00478  -0.1340   0.1734   0.6661
   3.500   1.1893   0.01138   0.00541  -0.1308   0.1322   0.6723
   4.000   1.2283   0.01228   0.00612  -0.1277   0.0968   0.6776
   4.500   1.2687   0.01311   0.00680  -0.1249   0.0735   0.6833
   5.000   1.3098   0.01387   0.00749  -0.1223   0.0583   0.6864
   5.500   1.3501   0.01468   0.00823  -0.1197   0.0461   0.6898
   6.000   1.3902   0.01551   0.00900  -0.1170   0.0378   0.6931
   6.500   1.4300   0.01632   0.00980  -0.1144   0.0319   0.6959
   7.000   1.4688   0.01719   0.01066  -0.1117   0.0275   0.6992
   7.500   1.5073   0.01808   0.01155  -0.1090   0.0246   0.7018
   8.000   1.5442   0.01903   0.01254  -0.1062   0.0219   0.7049
   8.500   1.5797   0.02007   0.01360  -0.1032   0.0196   0.7076
   9.000   1.6144   0.02118   0.01476  -0.1002   0.0180   0.7101
   9.500   1.6473   0.02240   0.01602  -0.0971   0.0165   0.7133
  10.000   1.6774   0.02380   0.01749  -0.0936   0.0151   0.7161
  10.500   1.7083   0.02516   0.01891  -0.0904   0.0144   0.7186
  11.000   1.7354   0.02677   0.02058  -0.0869   0.0134   0.7218
  11.500   1.7586   0.02868   0.02258  -0.0830   0.0123   0.7254
  12.000   1.7843   0.03042   0.02442  -0.0796   0.0119   0.7302
  13.000   1.8242   0.03439   0.02902  -0.0720   0.0108   0.9999
  13.500   1.8367   0.03733   0.03206  -0.0678   0.0101   0.9999
  14.000   1.8508   0.04028   0.03512  -0.0642   0.0097   0.9999
  14.500   1.8645   0.04338   0.03833  -0.0608   0.0095   0.9999
  15.000   1.8744   0.04692   0.04199  -0.0576   0.0092   0.9999
