  
       XFOIL         Version 6.99
  
 Calculated polar for: NACA 0012                                       
  
 1 1 Reynolds number fixed          Mach number fixed         
  
 xtrf =   1.000 (top)        1.000 (bottom)  
 Mach =   0.000     Re =     1.521 e 6     Ncrit =   9.000
  
   alpha    CL        CD       CDp       CM     Top_Xtr  Bot_Xtr
  ------ -------- --------- --------- -------- -------- --------
 -12.000  -0.7463   0.01202   0.00634  -0.0862   0.7994   0.0260
 -11.500  -0.6917   0.01151   0.00578  -0.0865   0.7996   0.0282
 -11.000  -0.6375   0.01088   0.00515  -0.0868   0.7999   0.0322
 -10.500  -0.5825   0.01035   0.00462  -0.0871   0.8002   0.0368
 -10.000  -0.5269   0.00988   0.00415  -0.0875   0.8005   0.0426
  -9.500  -0.4710   0.00943   0.00373  -0.0879   0.8009   0.0507
  -9.000  -0.4148   0.00901   0.00335  -0.0883   0.8012   0.0614
  -8.500  -0.3582   0.00862   0.00301  -0.0888   0.8017   0.0759
  -8.000  -0.3016   0.00822   0.00272  -0.0892   0.8021   0.0968
  -7.500  -0.2447   0.00784   0.00246  -0.0897   0.8025   0.1240
  -7.000  -0.1875   0.00750   0.00224  -0.0902   0.8029   0.1561
  -6.500  -0.1302   0.00716   0.00206  -0.0907   0.8033   0.1970
  -6.000  -0.0728   0.00681   0.00186  -0.0911   0.8016   0.2375
  -5.500  -0.0154   0.00647   0.00166  -0.0914   0.7982   0.2809
  -5.000   0.0423   0.00621   0.00153  -0.0918   0.7955   0.3223
  -4.500   0.1001   0.00598   0.00142  -0.0922   0.7928   0.3635
  -4.000   0.1580   0.00584   0.00137  -0.0925   0.7892   0.4011
  -3.500   0.2161   0.00570   0.00134  -0.0928   0.7859   0.4363
  -3.000   0.2741   0.00552   0.00128  -0.0931   0.7819   0.4697
  -2.500   0.3321   0.00537   0.00123  -0.0933   0.7763   0.5002
  -2.000   0.3898   0.00529   0.00121  -0.0934   0.7684   0.5276
  -1.500   0.4473   0.00518   0.00118  -0.0935   0.7567   0.5529
  -1.000   0.5046   0.00511   0.00116  -0.0935   0.7303   0.5747
  -0.500   0.5427   0.00638   0.00161  -0.0899   0.5070   0.5934
  -0.000   0.5911   0.00699   0.00191  -0.0884   0.4184   0.6106
