  
       XFOIL         Version 6.99
  
 Calculated polar for: NACA 2412                                       
  
 1 1 Reynolds number fixed          Mach number fixed         
  
 xtrf =   1.000 (top)        1.000 (bottom)  
 Mach =   0.000     Re =     1.521 e 6     Ncrit =   9.000
  
   alpha    CL        CD       CDp       CM     Top_Xtr  Bot_Xtr
  ------ -------- --------- --------- -------- -------- --------
 -15.000  -1.5197   0.04481   0.04122  -0.0221   0.9999   0.0105
 -14.500  -1.5266   0.03954   0.03573  -0.0202   0.9999   0.0107
 -14.000  -1.5222   0.03573   0.03174  -0.0174   0.9999   0.0108
 -13.500  -1.5269   0.03154   0.02731  -0.0131   0.9999   0.0111
 -13.000  -1.5232   0.02827   0.02384  -0.0084   0.9999   0.0115
 -12.500  -1.5056   0.02610   0.02155  -0.0042   0.9999   0.0119
 -12.000  -1.4820   0.02440   0.01973  -0.0002   0.9999   0.0122
 -11.500  -1.4553   0.02292   0.01813   0.0038   0.9999   0.0127
 -11.000  -1.4270   0.02214   0.01669   0.0081   0.7469   0.0131
 -10.500  -1.3929   0.02111   0.01549   0.0114   0.7358   0.0134
 -10.000  -1.3585   0.01964   0.01384   0.0146   0.7301   0.0140
  -9.500  -1.3182   0.01850   0.01260   0.0171   0.7250   0.0148
  -9.000  -1.2739   0.01765   0.01166   0.0190   0.7207   0.0156
  -8.500  -1.2276   0.01697   0.01086   0.0206   0.7161   0.0164
  -8.000  -1.1829   0.01595   0.00975   0.0225   0.7120   0.0174
  -7.500  -1.1354   0.01524   0.00896   0.0240   0.7076   0.0186
  -7.000  -1.0859   0.01463   0.00829   0.0252   0.7031   0.0197
  -6.500  -1.0371   0.01386   0.00747   0.0266   0.6987   0.0215
  -6.000  -0.9862   0.01328   0.00687   0.0276   0.6945   0.0234
  -5.500  -0.9353   0.01263   0.00619   0.0287   0.6903   0.0256
  -5.000  -0.8832   0.01211   0.00565   0.0296   0.6864   0.0281
  -4.500  -0.8312   0.01152   0.00507   0.0304   0.6810   0.0319
  -4.000  -0.7784   0.01101   0.00456   0.0312   0.6758   0.0361
  -3.500  -0.7251   0.01054   0.00411   0.0319   0.6693   0.0415
  -3.000  -0.6717   0.01008   0.00368   0.0326   0.6619   0.0492
  -2.500  -0.6181   0.00963   0.00329   0.0332   0.6534   0.0599
  -2.000  -0.5644   0.00923   0.00294   0.0338   0.6438   0.0742
  -1.500  -0.5106   0.00883   0.00261   0.0344   0.6323   0.0952
  -1.000  -0.4568   0.00844   0.00233   0.0350   0.6200   0.1226
  -0.500  -0.4031   0.00807   0.00208   0.0355   0.6063   0.1588
  -0.000  -0.3495   0.00770   0.00185   0.0361   0.5913   0.2059
   0.500  -0.2960   0.00734   0.00165   0.0366   0.5752   0.2631
   1.000  -0.2431   0.00693   0.00147   0.0373   0.5584   0.3397
   1.500  -0.1930   0.00627   0.00126   0.0383   0.5413   0.4799
   2.000  -0.1475   0.00524   0.00104   0.0403   0.5245   0.7479
   2.500  -0.0897   0.00535   0.00108   0.0402   0.5069   0.7649
   3.000  -0.0321   0.00543   0.00113   0.0401   0.4893   0.7760
   3.500   0.0261   0.00558   0.00120   0.0398   0.4718   0.7819
   4.000   0.0839   0.00564   0.00124   0.0396   0.4542   0.7886
   4.500   0.1417   0.00580   0.00135   0.0393   0.4354   0.7950
   5.000   0.1996   0.00600   0.00147   0.0391   0.4142   0.7988
   5.500   0.2574   0.00611   0.00153   0.0387   0.3906   0.8025
   6.000   0.3144   0.00632   0.00166   0.0385   0.3611   0.8073
   6.500   0.3718   0.00657   0.00179   0.0381   0.3280   0.8072
   7.000   0.4289   0.00686   0.00196   0.0376   0.2914   0.8064
   7.500   0.4853   0.00726   0.00218   0.0372   0.2492   0.8056
   8.000   0.5410   0.00772   0.00247   0.0369   0.2047   0.8049
   8.500   0.5960   0.00826   0.00283   0.0367   0.1613   0.8041
   9.000   0.6504   0.00886   0.00324   0.0365   0.1223   0.8034
   9.500   0.7045   0.00945   0.00369   0.0363   0.0932   0.8028
  10.000   0.7583   0.01005   0.00419   0.0362   0.0710   0.8022
  10.500   0.8115   0.01068   0.00472   0.0361   0.0551   0.8016
  11.000   0.8646   0.01127   0.00528   0.0360   0.0451   0.8011
  11.500   0.9171   0.01189   0.00589   0.0360   0.0378   0.8008
  12.000   0.9688   0.01257   0.00655   0.0361   0.0323   0.8005
  12.500   1.0197   0.01328   0.00727   0.0362   0.0283   0.8003
  13.000   1.0702   0.01397   0.00801   0.0363   0.0255   0.8003
  13.500   1.1183   0.01486   0.00893   0.0367   0.0227   0.8004
  14.000   1.1666   0.01565   0.00978   0.0370   0.0210   0.8007
  14.500   1.2105   0.01679   0.01099   0.0377   0.0190   0.8012
  15.000   1.2559   0.01767   0.01195   0.0382   0.0180   0.8019
  15.500   1.2967   0.01886   0.01320   0.0391   0.0167   0.8029
  16.000   1.3309   0.02044   0.01491   0.0405   0.0156   0.8043
  16.500   1.3614   0.02185   0.01644   0.0424   0.0150   0.8061
  17.000   1.3840   0.02395   0.01867   0.0439   0.0143   0.8085
  17.500   1.4029   0.02798   0.02286   0.0413   0.0137   0.8116
  18.000   1.4061   0.03347   0.02853   0.0391   0.0131   0.8156
  18.500   1.4041   0.03938   0.03465   0.0372   0.0127   0.8234
  19.500   1.3981   0.05169   0.04743   0.0330   0.0122   0.8617
  20.000   1.3798   0.05921   0.05548   0.0311   0.0120   1.0001
  20.500   1.3607   0.06837   0.06481   0.0273   0.0118   1.0001
  21.000   1.3351   0.07891   0.07554   0.0227   0.0116   1.0001
  21.500   1.3041   0.09065   0.08748   0.0175   0.0115   1.0001
  22.000   1.2684   0.10352   0.10055   0.0115   0.0114   1.0001
  22.500   1.2311   0.11710   0.11433   0.0050   0.0112   1.0001
  23.000   1.1940   0.13126   0.12867  -0.0022   0.0111   1.0001
  23.500   1.1621   0.14492   0.14250  -0.0095   0.0110   1.0001
  24.000   1.1337   0.15859   0.15631  -0.0174   0.0108   1.0001
  24.500   1.1130   0.17113   0.16897  -0.0250   0.0105   1.0001
  25.000   1.0961   0.18336   0.18133  -0.0328   0.0102   1.0001
