  
       XFOIL         Version 6.99
  
 Calculated polar for: NACA 0012                                       
  
 1 1 Reynolds number fixed          Mach number fixed         
  
 xtrf =   1.000 (top)        1.000 (bottom)  
 Mach =   0.000     Re =     1.521 e 6     Ncrit =   9.000
  
   alpha    CL        CD       CDp       CM     Top_Xtr  Bot_Xtr
  ------ -------- --------- --------- -------- -------- --------
 -12.000  -1.2715   0.01681   0.01148  -0.0098   1.0000   0.0166
 -11.500  -1.2307   0.01564   0.01023  -0.0078   1.0000   0.0179
 -11.000  -1.1856   0.01484   0.00940  -0.0063   1.0000   0.0193
 -10.500  -1.1398   0.01412   0.00862  -0.0047   1.0000   0.0204
 -10.000  -1.0963   0.01327   0.00775  -0.0028   1.0000   0.0224
  -9.500  -1.0514   0.01271   0.00715  -0.0008   1.0000   0.0239
  -9.000  -1.0093   0.01199   0.00643   0.0017   1.0000   0.0268
  -8.500  -0.9666   0.01145   0.00587   0.0042   1.0000   0.0295
  -8.000  -0.9246   0.01093   0.00535   0.0068   1.0000   0.0330
  -7.500  -0.8658   0.01035   0.00480   0.0058   0.9984   0.0384
  -7.000  -0.7992   0.00981   0.00429   0.0032   0.9958   0.0457
  -6.500  -0.7314   0.00924   0.00381   0.0004   0.9936   0.0574
  -6.000  -0.6669   0.00871   0.00337  -0.0017   0.9890   0.0723
  -5.500  -0.6000   0.00817   0.00295  -0.0043   0.9847   0.0953
  -5.000  -0.5402   0.00765   0.00259  -0.0052   0.9750   0.1256
  -4.500  -0.4846   0.00715   0.00225  -0.0052   0.9606   0.1639
  -4.000  -0.4319   0.00671   0.00196  -0.0043   0.9413   0.2080
  -3.500  -0.3795   0.00631   0.00171  -0.0035   0.9167   0.2564
  -3.000  -0.3265   0.00599   0.00149  -0.0027   0.8869   0.3077
  -2.500  -0.2729   0.00573   0.00131  -0.0021   0.8514   0.3599
  -2.000  -0.2188   0.00553   0.00116  -0.0015   0.8112   0.4123
  -1.500  -0.1645   0.00538   0.00105  -0.0011   0.7667   0.4653
  -1.000  -0.1098   0.00529   0.00098  -0.0007   0.7196   0.5175
  -0.500  -0.0550   0.00524   0.00093  -0.0003   0.6703   0.5692
  -0.000   0.0000   0.00522   0.00092  -0.0000   0.6201   0.6199
