  
       XFOIL         Version 6.99
  
 Calculated polar for: NACA 0012                                       
  
 1 1 Reynolds number fixed          Mach number fixed         
  
 xtrf =   1.000 (top)        1.000 (bottom)  
 Mach =   0.000     Re =     1.521 e 6     Ncrit =   9.000
  
   alpha    CL        CD       CDp       CM     Top_Xtr  Bot_Xtr
  ------ -------- --------- --------- -------- -------- --------
 -12.000  -0.5333   0.01117   0.00550  -0.1178   0.7787   0.0322
 -11.500  -0.4775   0.01072   0.00504  -0.1184   0.7794   0.0362
 -11.000  -0.4215   0.01023   0.00457  -0.1190   0.7801   0.0422
 -10.500  -0.3651   0.00982   0.00418  -0.1196   0.7809   0.0497
 -10.000  -0.3085   0.00943   0.00383  -0.1203   0.7816   0.0601
  -9.500  -0.2517   0.00904   0.00352  -0.1209   0.7824   0.0755
  -9.000  -0.1945   0.00872   0.00327  -0.1215   0.7832   0.0940
  -8.500  -0.1373   0.00839   0.00305  -0.1222   0.7839   0.1193
  -8.000  -0.0799   0.00810   0.00288  -0.1228   0.7846   0.1507
  -7.500  -0.0224   0.00783   0.00276  -0.1234   0.7853   0.1880
  -7.000   0.0353   0.00763   0.00270  -0.1240   0.7859   0.2280
  -6.500   0.0931   0.00746   0.00266  -0.1246   0.7862   0.2669
  -6.000   0.1516   0.00704   0.00236  -0.1251   0.7840   0.3073
  -5.500   0.2098   0.00672   0.00214  -0.1255   0.7806   0.3440
  -5.000   0.2681   0.00649   0.00200  -0.1259   0.7777   0.3794
  -4.500   0.3264   0.00630   0.00188  -0.1263   0.7747   0.4122
  -4.000   0.3844   0.00624   0.00189  -0.1266   0.7709   0.4425
  -3.500   0.4425   0.00607   0.00182  -0.1269   0.7679   0.4701
  -3.000   0.5006   0.00585   0.00169  -0.1271   0.7631   0.4959
  -2.500   0.5585   0.00569   0.00157  -0.1272   0.7563   0.5191
  -2.000   0.6161   0.00553   0.00151  -0.1272   0.7473   0.5400
  -1.500   0.6732   0.00539   0.00143  -0.1272   0.7238   0.5594
  -1.000   0.6991   0.00712   0.00219  -0.1212   0.4727   0.5744
  -0.500   0.7410   0.00788   0.00261  -0.1184   0.3817   0.5893
  -0.000   0.7833   0.00858   0.00303  -0.1156   0.3069   0.6032
