  
       XFOIL         Version 6.99
  
 Calculated polar for: NACA 2412                                       
  
 1 1 Reynolds number fixed          Mach number fixed         
  
 xtrf =   1.000 (top)        1.000 (bottom)  
 Mach =   0.000     Re =     2.332 e 6     Ncrit =   9.000
  
   alpha    CL        CD       CDp       CM     Top_Xtr  Bot_Xtr
  ------ -------- --------- --------- -------- -------- --------
 -15.000  -0.7107   0.01389   0.00912  -0.1525   0.7698   0.0147
 -14.500  -0.6574   0.01291   0.00807  -0.1534   0.7702   0.0158
 -14.000  -0.6024   0.01225   0.00736  -0.1542   0.7706   0.0167
 -13.500  -0.5466   0.01172   0.00677  -0.1549   0.7710   0.0174
 -13.000  -0.4912   0.01100   0.00599  -0.1557   0.7714   0.0189
 -12.500  -0.4348   0.01051   0.00549  -0.1565   0.7718   0.0203
 -12.000  -0.3781   0.01005   0.00498  -0.1572   0.7722   0.0218
 -11.500  -0.3212   0.00959   0.00452  -0.1580   0.7726   0.0240
 -11.000  -0.2639   0.00922   0.00411  -0.1587   0.7730   0.0261
 -10.500  -0.2063   0.00887   0.00377  -0.1594   0.7734   0.0291
 -10.000  -0.1486   0.00854   0.00344  -0.1601   0.7738   0.0330
  -9.500  -0.0906   0.00826   0.00317  -0.1609   0.7741   0.0376
  -9.000  -0.0325   0.00800   0.00293  -0.1616   0.7744   0.0437
  -8.500   0.0257   0.00770   0.00266  -0.1623   0.7740   0.0515
  -8.000   0.0841   0.00739   0.00240  -0.1629   0.7732   0.0622
  -7.500   0.1425   0.00712   0.00219  -0.1636   0.7724   0.0752
  -7.000   0.2010   0.00686   0.00200  -0.1643   0.7717   0.0934
  -6.500   0.2596   0.00662   0.00185  -0.1649   0.7708   0.1147
  -6.000   0.3181   0.00638   0.00171  -0.1655   0.7697   0.1435
  -5.500   0.3768   0.00616   0.00159  -0.1662   0.7684   0.1753
  -5.000   0.4354   0.00596   0.00149  -0.1667   0.7669   0.2105
  -4.500   0.4939   0.00576   0.00140  -0.1673   0.7649   0.2486
  -4.000   0.5523   0.00561   0.00135  -0.1678   0.7624   0.2891
  -3.500   0.6107   0.00553   0.00137  -0.1683   0.7589   0.3319
  -3.000   0.6690   0.00530   0.00129  -0.1687   0.7569   0.3771
  -2.500   0.7272   0.00509   0.00123  -0.1691   0.7527   0.4285
  -2.000   0.7846   0.00494   0.00119  -0.1693   0.7451   0.4803
  -1.500   0.8422   0.00480   0.00117  -0.1695   0.7308   0.5224
  -1.000   0.8736   0.00614   0.00183  -0.1645   0.5493   0.5496
  -0.500   0.9188   0.00670   0.00219  -0.1623   0.4876   0.5748
  -0.000   0.9646   0.00719   0.00252  -0.1602   0.4415   0.5945
   0.500   1.0099   0.00766   0.00287  -0.1580   0.4005   0.6110
   1.000   1.0519   0.00823   0.00327  -0.1551   0.3543   0.6247
   1.500   1.0880   0.00892   0.00374  -0.1511   0.3036   0.6355
   2.000   1.1197   0.00970   0.00431  -0.1463   0.2534   0.6454
   2.500   1.1547   0.01062   0.00499  -0.1423   0.2017   0.6533
   3.000   1.1908   0.01158   0.00571  -0.1387   0.1541   0.6607
   3.500   1.2287   0.01250   0.00644  -0.1354   0.1157   0.6665
   4.000   1.2676   0.01340   0.00718  -0.1324   0.0870   0.6725
   4.500   1.3073   0.01427   0.00793  -0.1296   0.0666   0.6774
   5.000   1.3471   0.01513   0.00871  -0.1269   0.0519   0.6809
   5.500   1.3871   0.01598   0.00950  -0.1243   0.0427   0.6844
   6.000   1.4269   0.01683   0.01032  -0.1217   0.0357   0.6872
   6.500   1.4654   0.01774   0.01121  -0.1189   0.0304   0.6897
   7.000   1.5033   0.01870   0.01216  -0.1161   0.0260   0.6927
   7.500   1.5400   0.01971   0.01316  -0.1132   0.0233   0.6955
   8.000   1.5767   0.02071   0.01421  -0.1104   0.0210   0.6978
   8.500   1.6104   0.02190   0.01541  -0.1072   0.0187   0.7006
   9.000   1.6444   0.02306   0.01662  -0.1042   0.0173   0.7028
   9.500   1.6759   0.02437   0.01797  -0.1009   0.0159   0.7055
  10.000   1.7053   0.02584   0.01951  -0.0975   0.0146   0.7077
  10.500   1.7347   0.02729   0.02103  -0.0941   0.0139   0.7100
  11.000   1.7607   0.02900   0.02280  -0.0905   0.0129   0.7122
  11.500   1.7829   0.03101   0.02490  -0.0865   0.0119   0.7146
  12.000   1.8070   0.03291   0.02689  -0.0830   0.0115   0.7169
  12.500   1.8283   0.03509   0.02916  -0.0794   0.0110   0.7188
  13.500   1.8589   0.04057   0.03484  -0.0716   0.0098   0.7240
  14.000   1.8692   0.04391   0.03831  -0.0677   0.0094   0.7268
  14.500   1.8813   0.04720   0.04174  -0.0643   0.0092   0.7301
  15.500   1.8952   0.05491   0.05015  -0.0582   0.0087   0.9998
  16.000   1.8950   0.06017   0.05555  -0.0559   0.0085   0.9998
  16.500   1.8899   0.06653   0.06207  -0.0546   0.0082   0.9998
  17.000   1.8776   0.07425   0.06996  -0.0542   0.0079   0.9998
  17.500   1.8544   0.08378   0.07970  -0.0551   0.0076   0.9998
  18.000   1.8222   0.09501   0.09118  -0.0573   0.0074   0.9998
  18.500   1.7973   0.10538   0.10175  -0.0602   0.0073   0.9998
  19.000   1.7686   0.11669   0.11326  -0.0642   0.0073   0.9998
  19.500   1.7380   0.12857   0.12536  -0.0692   0.0072   0.9998
  20.000   1.7035   0.14159   0.13860  -0.0759   0.0072   0.9998
  20.500   1.6704   0.15484   0.15206  -0.0836   0.0071   0.9998
  21.000   1.6327   0.16947   0.16693  -0.0932   0.0071   0.9998
  21.500   1.5979   0.18416   0.18183  -0.1037   0.0070   0.9998
  22.000   1.5599   0.20041   0.19830  -0.1161   0.0070   0.9998
  22.500   1.5272   0.21622   0.21432  -0.1288   0.0069   0.9998
  23.000   1.5033   0.23036   0.22862  -0.1405   0.0068   0.9998
  23.500   1.4801   0.24506   0.24348  -0.1530   0.0067   0.9998
  24.000   1.4667   0.25754   0.25608  -0.1637   0.0065   0.9998
  24.500   1.4566   0.26949   0.26813  -0.1741   0.0063   0.9998
  25.000   1.4490   0.28100   0.27972  -0.1842   0.0060   0.9998
