  
       XFOIL         Version 6.99
  
 Calculated polar for: NACA 0012                                       
  
 1 1 Reynolds number fixed          Mach number fixed         
  
 xtrf =   1.000 (top)        1.000 (bottom)  
 Mach =   0.000     Re =     2.332 e 6     Ncrit =   9.000
  
   alpha    CL        CD       CDp       CM     Top_Xtr  Bot_Xtr
  ------ -------- --------- --------- -------- -------- --------
 -12.000  -0.1783   0.01073   0.00576  -0.1708   0.7458   0.0463
 -11.500  -0.1215   0.01055   0.00563  -0.1716   0.7466   0.0551
 -11.000  -0.0647   0.01039   0.00553  -0.1723   0.7474   0.0669
 -10.500  -0.0080   0.01026   0.00548  -0.1730   0.7482   0.0823
 -10.000   0.0487   0.01013   0.00544  -0.1737   0.7490   0.1032
  -9.500   0.1054   0.01003   0.00545  -0.1743   0.7497   0.1283
  -9.000   0.1621   0.00997   0.00551  -0.1749   0.7505   0.1575
  -8.500   0.2186   0.00995   0.00561  -0.1753   0.7512   0.1898
  -8.000   0.2748   0.01001   0.00578  -0.1757   0.7519   0.2230
  -7.500   0.3322   0.00991   0.00581  -0.1763   0.7520   0.2582
  -7.000   0.3974   0.00876   0.00467  -0.1778   0.7468   0.2930
  -6.500   0.4580   0.00829   0.00419  -0.1786   0.7417   0.3251
  -6.000   0.5136   0.00845   0.00444  -0.1786   0.7397   0.3521
  -5.500   0.5765   0.00758   0.00363  -0.1798   0.7378   0.3824
  -5.000   0.6376   0.00699   0.00307  -0.1806   0.7359   0.4077
  -4.500   0.7005   0.00639   0.00249  -0.1818   0.7397   0.4335
  -4.000   0.7600   0.00591   0.00207  -0.1822   0.7370   0.4541
  -3.500   0.8184   0.00552   0.00170  -0.1825   0.7295   0.4745
  -3.000   0.8509   0.00664   0.00226  -0.1777   0.5519   0.4910
  -2.500   0.8718   0.00800   0.00313  -0.1707   0.4167   0.5060
  -2.000   0.8874   0.00896   0.00385  -0.1625   0.3436   0.5204
  -1.500   0.9073   0.01023   0.00491  -0.1558   0.2823   0.5335
  -1.000   0.9338   0.01155   0.00605  -0.1506   0.2310   0.5457
  -0.500   0.9639   0.01282   0.00713  -0.1463   0.1801   0.5587
  -0.000   0.9980   0.01391   0.00804  -0.1425   0.1377   0.5702
