  
       XFOIL         Version 6.99
  
 Calculated polar for: NACA 0012                                       
  
 1 1 Reynolds number fixed          Mach number fixed         
  
 xtrf =   1.000 (top)        1.000 (bottom)  
 Mach =   0.000     Re =     2.332 e 6     Ncrit =   9.000
  
   alpha    CL        CD       CDp       CM     Top_Xtr  Bot_Xtr
  ------ -------- --------- --------- -------- -------- --------
 -12.000  -0.6808   0.01060   0.00517  -0.0960   0.7719   0.0243
 -11.500  -0.6258   0.01005   0.00462  -0.0964   0.7726   0.0277
 -11.000  -0.5700   0.00959   0.00416  -0.0968   0.7734   0.0312
 -10.500  -0.5138   0.00918   0.00376  -0.0973   0.7742   0.0356
 -10.000  -0.4573   0.00878   0.00339  -0.0978   0.7749   0.0414
  -9.500  -0.4007   0.00838   0.00304  -0.0983   0.7757   0.0500
  -9.000  -0.3437   0.00801   0.00273  -0.0988   0.7765   0.0608
  -8.500  -0.2865   0.00767   0.00246  -0.0993   0.7772   0.0748
  -8.000  -0.2292   0.00732   0.00221  -0.0998   0.7779   0.0955
  -7.500  -0.1716   0.00701   0.00201  -0.1004   0.7786   0.1198
  -7.000  -0.1140   0.00669   0.00182  -0.1010   0.7791   0.1517
  -6.500  -0.0564   0.00637   0.00162  -0.1014   0.7769   0.1869
  -6.000   0.0012   0.00611   0.00146  -0.1018   0.7732   0.2240
  -5.500   0.0590   0.00591   0.00139  -0.1023   0.7702   0.2647
  -5.000   0.1173   0.00565   0.00126  -0.1028   0.7692   0.3032
  -4.500   0.1757   0.00542   0.00116  -0.1032   0.7676   0.3411
  -4.000   0.2341   0.00522   0.00107  -0.1037   0.7652   0.3766
  -3.500   0.2925   0.00504   0.00100  -0.1040   0.7617   0.4102
  -3.000   0.3506   0.00493   0.00096  -0.1043   0.7564   0.4420
  -2.500   0.4089   0.00479   0.00093  -0.1047   0.7504   0.4718
  -2.000   0.4668   0.00469   0.00089  -0.1049   0.7388   0.4986
  -1.500   0.5113   0.00560   0.00122  -0.1026   0.5502   0.5225
  -1.000   0.5596   0.00622   0.00150  -0.1010   0.4475   0.5438
  -0.500   0.6090   0.00673   0.00175  -0.0997   0.3701   0.5636
  -0.000   0.6585   0.00722   0.00202  -0.0984   0.3032   0.5819
