  
       XFOIL         Version 6.99
  
 Calculated polar for: NACA 2412                                       
  
 1 1 Reynolds number fixed          Mach number fixed         
  
 xtrf =   1.000 (top)        1.000 (bottom)  
 Mach =   0.000     Re =     2.332 e 6     Ncrit =   9.000
  
   alpha    CL        CD       CDp       CM     Top_Xtr  Bot_Xtr
  ------ -------- --------- --------- -------- -------- --------
 -15.000  -1.3539   0.02098   0.01692  -0.0599   1.0000   0.0107
 -14.500  -1.3166   0.01980   0.01565  -0.0578   1.0000   0.0108
 -14.000  -1.2870   0.01813   0.01383  -0.0545   1.0000   0.0114
 -13.500  -1.2538   0.01699   0.01261  -0.0511   1.0000   0.0120
 -13.000  -1.2200   0.01610   0.01166  -0.0475   1.0000   0.0124
 -12.500  -1.1743   0.01525   0.01074  -0.0463   0.9994   0.0129
 -12.000  -1.1146   0.01444   0.00987  -0.0478   0.9978   0.0133
 -11.500  -1.0550   0.01340   0.00874  -0.0495   0.9960   0.0143
 -11.000  -0.9929   0.01260   0.00793  -0.0514   0.9946   0.0153
 -10.500  -0.9309   0.01195   0.00723  -0.0532   0.9927   0.0161
 -10.000  -0.8702   0.01120   0.00643  -0.0546   0.9896   0.0173
  -9.500  -0.8089   0.01056   0.00579  -0.0561   0.9858   0.0188
  -9.000  -0.7508   0.01010   0.00529  -0.0567   0.9795   0.0197
  -8.500  -0.6975   0.00950   0.00468  -0.0563   0.9697   0.0222
  -8.000  -0.6452   0.00911   0.00425  -0.0554   0.9563   0.0236
  -7.500  -0.5924   0.00864   0.00376  -0.0547   0.9426   0.0267
  -7.000  -0.5382   0.00826   0.00335  -0.0543   0.9287   0.0300
  -6.500  -0.4834   0.00793   0.00299  -0.0540   0.9135   0.0335
  -6.000  -0.4283   0.00762   0.00265  -0.0537   0.8964   0.0383
  -5.500  -0.3731   0.00733   0.00234  -0.0534   0.8771   0.0451
  -5.000  -0.3174   0.00705   0.00205  -0.0533   0.8559   0.0548
  -4.500  -0.2618   0.00681   0.00180  -0.0531   0.8319   0.0673
  -4.000  -0.2059   0.00661   0.00158  -0.0530   0.8064   0.0824
  -3.500  -0.1502   0.00641   0.00139  -0.0529   0.7778   0.1049
  -3.000  -0.0942   0.00623   0.00123  -0.0528   0.7479   0.1322
  -2.500  -0.0382   0.00609   0.00110  -0.0527   0.7165   0.1653
  -2.000   0.0177   0.00595   0.00099  -0.0527   0.6838   0.2061
  -1.500   0.0738   0.00584   0.00092  -0.0527   0.6508   0.2517
  -1.000   0.1298   0.00573   0.00088  -0.0527   0.6177   0.3054
  -0.500   0.1858   0.00564   0.00085  -0.0527   0.5857   0.3658
  -0.000   0.2413   0.00547   0.00085  -0.0526   0.5550   0.4570
   0.500   0.2968   0.00532   0.00088  -0.0526   0.5259   0.5556
   1.000   0.3522   0.00523   0.00094  -0.0525   0.4981   0.6438
   1.500   0.4077   0.00516   0.00102  -0.0523   0.4726   0.7283
   2.000   0.4624   0.00512   0.00113  -0.0519   0.4475   0.8106
   2.500   0.5158   0.00512   0.00127  -0.0512   0.4213   0.8853
   3.000   0.5676   0.00523   0.00142  -0.0500   0.3924   0.9423
   3.500   0.6219   0.00551   0.00160  -0.0495   0.3558   0.9755
   4.000   0.6842   0.00589   0.00181  -0.0510   0.3130   0.9906
   4.500   0.7519   0.00640   0.00208  -0.0538   0.2628   0.9966
   5.000   0.8171   0.00698   0.00241  -0.0562   0.2105   1.0000
   5.500   0.8623   0.00755   0.00276  -0.0541   0.1651   1.0000
   6.000   0.9083   0.00815   0.00315  -0.0523   0.1258   1.0000
   6.500   0.9564   0.00872   0.00357  -0.0509   0.0958   1.0000
   7.000   1.0055   0.00931   0.00402  -0.0497   0.0727   1.0000
   7.500   1.0550   0.00990   0.00451  -0.0487   0.0560   1.0000
   8.000   1.1051   0.01045   0.00499  -0.0478   0.0457   1.0000
   8.500   1.1546   0.01103   0.00552  -0.0468   0.0378   1.0000
   9.000   1.2037   0.01163   0.00608  -0.0458   0.0318   1.0000
   9.500   1.2521   0.01223   0.00667  -0.0448   0.0276   1.0000
  10.000   1.2994   0.01290   0.00732  -0.0435   0.0241   1.0000
  10.500   1.3454   0.01361   0.00803  -0.0421   0.0212   1.0000
  11.000   1.3910   0.01430   0.00874  -0.0407   0.0196   1.0000
  11.500   1.4333   0.01515   0.00959  -0.0388   0.0175   1.0000
  12.000   1.4753   0.01592   0.01041  -0.0369   0.0164   1.0000
  12.500   1.5123   0.01681   0.01133  -0.0342   0.0152   1.0000
  13.000   1.5420   0.01791   0.01248  -0.0303   0.0140   1.0000
  13.500   1.5737   0.01894   0.01358  -0.0271   0.0135   1.0000
  14.000   1.6019   0.02023   0.01493  -0.0238   0.0128   1.0000
  14.500   1.6256   0.02189   0.01667  -0.0203   0.0120   1.0000
  15.000   1.6455   0.02394   0.01882  -0.0169   0.0113   1.0000
  15.500   1.6681   0.02595   0.02092  -0.0143   0.0110   1.0000
  16.000   1.6868   0.02843   0.02350  -0.0119   0.0106   1.0000
  16.500   1.7010   0.03150   0.02668  -0.0099   0.0102   1.0000
  17.000   1.7093   0.03538   0.03067  -0.0083   0.0098   1.0000
  17.500   1.7081   0.04054   0.03599  -0.0073   0.0093   1.0000
  18.000   1.7028   0.04660   0.04223  -0.0073   0.0091   1.0000
  18.500   1.7001   0.05274   0.04853  -0.0079   0.0090   1.0000
  19.000   1.6911   0.06004   0.05601  -0.0094   0.0088   1.0000
  19.500   1.6749   0.06856   0.06471  -0.0116   0.0087   1.0000
  20.000   1.6514   0.07844   0.07479  -0.0147   0.0086   1.0000
  20.500   1.6215   0.08959   0.08614  -0.0186   0.0085   1.0000
  21.000   1.5846   0.10216   0.09892  -0.0236   0.0084   1.0000
  21.500   1.5429   0.11602   0.11301  -0.0298   0.0083   1.0000
  22.000   1.4965   0.13116   0.12838  -0.0372   0.0083   1.0000
  22.500   1.4493   0.14718   0.14462  -0.0460   0.0082   1.0000
  23.000   1.4064   0.16317   0.16083  -0.0557   0.0082   1.0000
  23.500   1.3638   0.18009   0.17796  -0.0669   0.0081   1.0000
  24.000   1.3295   0.19603   0.19408  -0.0780   0.0080   1.0000
  24.500   1.3058   0.21032   0.20851  -0.0884   0.0079   1.0000
  25.000   1.2853   0.22452   0.22284  -0.0990   0.0077   1.0000
