  
       XFOIL         Version 6.99
  
 Calculated polar for: NACA 0012                                       
  
 1 1 Reynolds number fixed          Mach number fixed         
  
 xtrf =   1.000 (top)        1.000 (bottom)  
 Mach =   0.000     Re =     2.332 e 6     Ncrit =   9.000
  
   alpha    CL        CD       CDp       CM     Top_Xtr  Bot_Xtr
  ------ -------- --------- --------- -------- -------- --------
 -12.000  -0.3905   0.00972   0.00444  -0.1392   0.7590   0.0339
 -11.500  -0.3335   0.00934   0.00409  -0.1399   0.7597   0.0391
 -11.000  -0.2764   0.00899   0.00377  -0.1407   0.7604   0.0461
 -10.500  -0.2191   0.00866   0.00350  -0.1415   0.7612   0.0560
 -10.000  -0.1617   0.00835   0.00326  -0.1422   0.7619   0.0692
  -9.500  -0.1040   0.00809   0.00307  -0.1429   0.7627   0.0848
  -9.000  -0.0463   0.00781   0.00290  -0.1437   0.7635   0.1084
  -8.500   0.0115   0.00757   0.00277  -0.1444   0.7642   0.1356
  -8.000   0.0695   0.00736   0.00268  -0.1451   0.7651   0.1668
  -7.500   0.1275   0.00718   0.00263  -0.1458   0.7659   0.2017
  -7.000   0.1858   0.00694   0.00250  -0.1464   0.7654   0.2367
  -6.500   0.2447   0.00652   0.00215  -0.1470   0.7615   0.2735
  -6.000   0.3033   0.00624   0.00194  -0.1475   0.7584   0.3087
  -5.500   0.3612   0.00618   0.00196  -0.1479   0.7554   0.3421
  -5.000   0.4195   0.00605   0.00193  -0.1484   0.7534   0.3732
  -4.500   0.4784   0.00574   0.00171  -0.1488   0.7511   0.4028
  -4.000   0.5370   0.00549   0.00154  -0.1492   0.7471   0.4295
  -3.500   0.5951   0.00530   0.00139  -0.1494   0.7415   0.4550
  -3.000   0.6534   0.00514   0.00131  -0.1497   0.7359   0.4774
  -2.500   0.7110   0.00504   0.00126  -0.1498   0.6937   0.4993
  -2.000   0.7355   0.00683   0.00210  -0.1437   0.4573   0.5157
  -1.500   0.7755   0.00757   0.00253  -0.1405   0.3688   0.5329
  -1.000   0.8150   0.00825   0.00295  -0.1371   0.2971   0.5482
  -0.500   0.8538   0.00889   0.00339  -0.1336   0.2394   0.5633
  -0.000   0.8861   0.00954   0.00386  -0.1287   0.1896   0.5768
