  
       XFOIL         Version 6.99
  
 Calculated polar for: NACA 2412                                       
  
 1 1 Reynolds number fixed          Mach number fixed         
  
 xtrf =   1.000 (top)        1.000 (bottom)  
 Mach =   0.000     Re =     1.521 e 6     Ncrit =   9.000
  
   alpha    CL        CD       CDp       CM     Top_Xtr  Bot_Xtr
  ------ -------- --------- --------- -------- -------- --------
 -15.000  -1.3780   0.02797   0.02400  -0.0537   1.0000   0.0118
 -14.500  -1.3656   0.02559   0.02147  -0.0499   1.0000   0.0121
 -14.000  -1.3435   0.02384   0.01959  -0.0462   1.0000   0.0124
 -13.500  -1.3118   0.02228   0.01790  -0.0436   1.0000   0.0128
 -13.000  -1.2759   0.02090   0.01639  -0.0413   1.0000   0.0132
 -12.500  -1.2367   0.01973   0.01510  -0.0392   1.0000   0.0136
 -12.000  -1.2024   0.01809   0.01331  -0.0364   1.0000   0.0142
 -11.500  -1.1640   0.01694   0.01209  -0.0338   1.0000   0.0150
 -11.000  -1.1238   0.01607   0.01115  -0.0312   1.0000   0.0157
 -10.500  -1.0829   0.01535   0.01035  -0.0286   1.0000   0.0164
 -10.000  -1.0448   0.01440   0.00931  -0.0255   1.0000   0.0172
  -9.500  -1.0055   0.01357   0.00843  -0.0225   1.0000   0.0183
  -9.000  -0.9466   0.01288   0.00769  -0.0235   0.9985   0.0195
  -8.500  -0.8815   0.01204   0.00680  -0.0259   0.9960   0.0211
  -8.000  -0.8141   0.01140   0.00615  -0.0286   0.9939   0.0232
  -7.500  -0.7501   0.01070   0.00542  -0.0305   0.9894   0.0255
  -7.000  -0.6825   0.01015   0.00487  -0.0332   0.9850   0.0281
  -6.500  -0.6226   0.00956   0.00429  -0.0341   0.9761   0.0320
  -6.000  -0.5652   0.00906   0.00379  -0.0343   0.9628   0.0364
  -5.500  -0.5109   0.00864   0.00335  -0.0338   0.9408   0.0420
  -5.000  -0.4587   0.00830   0.00294  -0.0327   0.9002   0.0492
  -4.500  -0.4077   0.00814   0.00257  -0.0314   0.8240   0.0589
  -3.500  -0.3002   0.00778   0.00202  -0.0303   0.7341   0.0908
  -3.000  -0.2448   0.00754   0.00180  -0.0301   0.7176   0.1153
  -2.500  -0.1892   0.00727   0.00162  -0.0300   0.7039   0.1479
  -2.000  -0.1331   0.00700   0.00146  -0.0300   0.6894   0.1871
  -1.500  -0.0771   0.00673   0.00131  -0.0299   0.6717   0.2350
  -1.000  -0.0213   0.00646   0.00119  -0.0299   0.6508   0.2923
  -0.500   0.0343   0.00621   0.00109  -0.0298   0.6266   0.3620
  -0.000   0.0889   0.00588   0.00102  -0.0296   0.6013   0.4691
   0.500   0.1428   0.00549   0.00097  -0.0292   0.5750   0.6056
   1.000   0.1953   0.00511   0.00101  -0.0284   0.5497   0.7662
   1.500   0.2508   0.00514   0.00107  -0.0281   0.5239   0.8108
   2.000   0.3068   0.00520   0.00114  -0.0279   0.4999   0.8417
   2.500   0.3626   0.00531   0.00123  -0.0277   0.4759   0.8675
   3.000   0.4182   0.00543   0.00134  -0.0274   0.4523   0.8908
   3.500   0.4728   0.00558   0.00147  -0.0270   0.4268   0.9145
   4.000   0.5268   0.00577   0.00162  -0.0263   0.3989   0.9381
   4.500   0.5794   0.00603   0.00180  -0.0254   0.3652   0.9633
   5.000   0.6369   0.00641   0.00204  -0.0257   0.3252   0.9834
   5.500   0.7041   0.00691   0.00234  -0.0284   0.2758   0.9906
   6.000   0.7702   0.00752   0.00270  -0.0311   0.2221   0.9949
   6.500   0.8347   0.00822   0.00313  -0.0335   0.1682   0.9980
   7.000   0.8919   0.00892   0.00361  -0.0343   0.1243   1.0000
   7.500   0.9336   0.00954   0.00406  -0.0317   0.0948   1.0000
   8.000   0.9774   0.01016   0.00457  -0.0296   0.0726   1.0000
   8.500   1.0230   0.01081   0.00511  -0.0279   0.0567   1.0000
   9.000   1.0706   0.01142   0.00568  -0.0266   0.0463   1.0000
   9.500   1.1184   0.01208   0.00630  -0.0254   0.0387   1.0000
  10.000   1.1659   0.01276   0.00696  -0.0242   0.0329   1.0000
  10.500   1.2127   0.01350   0.00770  -0.0230   0.0287   1.0000
  11.000   1.2574   0.01436   0.00856  -0.0216   0.0250   1.0000
  11.500   1.3033   0.01507   0.00931  -0.0203   0.0230   1.0000
  12.000   1.3449   0.01606   0.01033  -0.0185   0.0207   1.0000
  12.500   1.3868   0.01692   0.01124  -0.0167   0.0193   1.0000
  13.000   1.4218   0.01814   0.01251  -0.0141   0.0176   1.0000
  13.500   1.4541   0.01916   0.01362  -0.0109   0.0167   1.0000
  14.000   1.4826   0.02040   0.01493  -0.0075   0.0158   1.0000
  14.500   1.5048   0.02214   0.01675  -0.0040   0.0148   1.0000
  15.000   1.5229   0.02435   0.01910  -0.0007   0.0141   1.0000
  15.500   1.5437   0.02663   0.02150   0.0015   0.0136   1.0000
  16.000   1.5605   0.02956   0.02456   0.0030   0.0131   1.0000
  16.500   1.5726   0.03333   0.02845   0.0038   0.0126   1.0000
  17.000   1.5760   0.03829   0.03356   0.0039   0.0121   1.0000
  17.500   1.5605   0.04568   0.04117   0.0032   0.0116   1.0000
  18.000   1.5599   0.05168   0.04734   0.0021   0.0114   1.0000
  18.500   1.5507   0.05902   0.05487   0.0003   0.0112   1.0000
  19.000   1.5346   0.06770   0.06375  -0.0024   0.0110   1.0000
  19.500   1.5116   0.07777   0.07402  -0.0060   0.0109   1.0000
  20.000   1.4828   0.08902   0.08549  -0.0103   0.0107   1.0000
  20.500   1.4481   0.10165   0.09833  -0.0155   0.0106   1.0000
  21.000   1.4092   0.11544   0.11235  -0.0218   0.0105   1.0000
  21.500   1.3708   0.12960   0.12672  -0.0287   0.0104   1.0000
  22.000   1.3342   0.14406   0.14138  -0.0364   0.0103   1.0000
  22.500   1.3023   0.15814   0.15564  -0.0446   0.0102   1.0000
  23.000   1.2759   0.17179   0.16945  -0.0530   0.0100   1.0000
  23.500   1.2548   0.18478   0.18258  -0.0616   0.0099   1.0000
  24.000   1.2388   0.19700   0.19491  -0.0700   0.0096   1.0000
  24.500   1.2240   0.20933   0.20736  -0.0789   0.0092   1.0000
  25.000   1.2142   0.22109   0.21926  -0.0875   0.0091   1.0000
