  
       XFOIL         Version 6.99
  
 Calculated polar for: NACA 2412                                       
  
 1 1 Reynolds number fixed          Mach number fixed         
  
 xtrf =   1.000 (top)        1.000 (bottom)  
 Mach =   0.000     Re =     1.521 e 6     Ncrit =   9.000
  
   alpha    CL        CD       CDp       CM     Top_Xtr  Bot_Xtr
  ------ -------- --------- --------- -------- -------- --------
 -15.000  -1.0762   0.02049   0.01650  -0.0985   0.9845   0.0137
 -14.500  -1.0282   0.01903   0.01488  -0.0992   0.9718   0.0142
 -14.000  -0.9829   0.01792   0.01362  -0.0985   0.9553   0.0146
 -13.500  -0.9424   0.01619   0.01169  -0.0974   0.9365   0.0155
 -13.000  -0.8949   0.01522   0.01059  -0.0968   0.9205   0.0163
 -12.500  -0.8449   0.01446   0.00969  -0.0965   0.9066   0.0172
 -12.000  -0.7937   0.01373   0.00882  -0.0962   0.8947   0.0178
 -11.500  -0.7432   0.01269   0.00768  -0.0960   0.8853   0.0193
 -11.000  -0.6901   0.01209   0.00697  -0.0959   0.8771   0.0206
 -10.500  -0.6363   0.01140   0.00619  -0.0960   0.8713   0.0220
 -10.000  -0.5820   0.01081   0.00555  -0.0961   0.8658   0.0241
  -9.500  -0.5271   0.01030   0.00496  -0.0962   0.8607   0.0260
  -9.000  -0.4716   0.00979   0.00443  -0.0964   0.8572   0.0288
  -8.500  -0.4156   0.00930   0.00392  -0.0966   0.8541   0.0322
  -8.000  -0.3592   0.00891   0.00350  -0.0969   0.8501   0.0361
  -7.500  -0.3033   0.00857   0.00311  -0.0969   0.8415   0.0409
  -7.000  -0.2467   0.00819   0.00275  -0.0972   0.8364   0.0479
  -6.500  -0.1898   0.00783   0.00242  -0.0975   0.8328   0.0579
  -6.000  -0.1328   0.00751   0.00214  -0.0977   0.8285   0.0715
  -5.000  -0.0180   0.00691   0.00171  -0.0984   0.8211   0.1122
  -4.500   0.0395   0.00663   0.00153  -0.0987   0.8169   0.1417
  -4.000   0.0969   0.00639   0.00138  -0.0990   0.8114   0.1768
  -3.500   0.1545   0.00613   0.00127  -0.0994   0.8064   0.2195
  -3.000   0.2121   0.00588   0.00117  -0.0997   0.8000   0.2665
  -2.500   0.2694   0.00569   0.00110  -0.0999   0.7921   0.3187
  -2.000   0.3268   0.00546   0.00105  -0.1001   0.7831   0.3768
  -1.500   0.3837   0.00522   0.00102  -0.1003   0.7714   0.4536
  -1.000   0.4404   0.00503   0.00101  -0.1003   0.7538   0.5301
  -0.500   0.4915   0.00523   0.00103  -0.0991   0.6630   0.5865
  -0.000   0.5425   0.00565   0.00128  -0.0981   0.5951   0.6288
   0.500   0.5959   0.00597   0.00147  -0.0975   0.5484   0.6583
   1.000   0.6495   0.00630   0.00166  -0.0969   0.5082   0.6787
   1.500   0.7035   0.00661   0.00184  -0.0964   0.4725   0.6933
   2.000   0.7570   0.00690   0.00202  -0.0959   0.4382   0.7050
   2.500   0.8098   0.00716   0.00221  -0.0953   0.4030   0.7172
   3.500   0.9120   0.00747   0.00283  -0.0933   0.3118   0.9999
   4.000   0.9606   0.00810   0.00321  -0.0920   0.2597   0.9999
   4.500   1.0079   0.00884   0.00367  -0.0904   0.2049   0.9999
   5.000   1.0542   0.00965   0.00420  -0.0888   0.1545   0.9999
   5.500   1.1001   0.01046   0.00478  -0.0871   0.1128   0.9999
   6.000   1.1465   0.01121   0.00537  -0.0855   0.0843   0.9999
   6.500   1.1924   0.01196   0.00599  -0.0837   0.0642   0.9999
   7.000   1.2377   0.01269   0.00664  -0.0820   0.0506   0.9999
   7.500   1.2819   0.01344   0.00733  -0.0800   0.0411   0.9999
   8.000   1.3247   0.01420   0.00806  -0.0778   0.0345   0.9999
   8.500   1.3646   0.01494   0.00880  -0.0751   0.0303   0.9999
   9.000   1.4026   0.01574   0.00963  -0.0721   0.0270   0.9999
   9.500   1.4379   0.01672   0.01062  -0.0688   0.0239   0.9999
  10.000   1.4739   0.01765   0.01159  -0.0658   0.0219   0.9999
  10.500   1.5056   0.01886   0.01285  -0.0623   0.0199   0.9999
  11.000   1.5386   0.01999   0.01404  -0.0592   0.0187   0.9999
  11.500   1.5660   0.02151   0.01561  -0.0556   0.0171   0.9999
  12.000   1.5936   0.02305   0.01724  -0.0522   0.0162   0.9999
  12.500   1.6203   0.02468   0.01896  -0.0490   0.0153   0.9999
  13.000   1.6416   0.02676   0.02111  -0.0454   0.0144   0.9999
  13.500   1.6560   0.02944   0.02392  -0.0416   0.0136   0.9999
  14.000   1.6754   0.03184   0.02644  -0.0386   0.0131   0.9999
  14.500   1.6901   0.03471   0.02944  -0.0356   0.0126   0.9999
  15.000   1.7007   0.03808   0.03293  -0.0327   0.0122   0.9999
  15.500   1.7047   0.04233   0.03732  -0.0302   0.0117   0.9999
  16.000   1.6954   0.04847   0.04365  -0.0284   0.0111   0.9999
  16.500   1.6942   0.05438   0.04974  -0.0279   0.0109   0.9999
  17.000   1.6910   0.06097   0.05652  -0.0283   0.0107   0.9999
  17.500   1.6807   0.06885   0.06460  -0.0296   0.0104   0.9999
  18.000   1.6625   0.07809   0.07405  -0.0318   0.0103   0.9999
  18.500   1.6377   0.08861   0.08478  -0.0349   0.0101   0.9999
  19.000   1.6071   0.10034   0.09674  -0.0390   0.0099   0.9999
  19.500   1.5721   0.11320   0.10982  -0.0442   0.0098   0.9999
  20.000   1.5352   0.12684   0.12369  -0.0505   0.0097   0.9999
  20.500   1.4993   0.14079   0.13786  -0.0577   0.0096   0.9999
  21.000   1.4633   0.15535   0.15263  -0.0661   0.0095   0.9999
  21.500   1.4318   0.16969   0.16716  -0.0752   0.0094   0.9999
  22.000   1.4037   0.18377   0.18141  -0.0847   0.0093   0.9999
  22.500   1.3807   0.19737   0.19516  -0.0944   0.0091   0.9999
  23.000   1.3608   0.21066   0.20859  -0.1044   0.0088   0.9999
  23.500   1.3493   0.22241   0.22048  -0.1134   0.0087   0.9999
  24.000   1.3385   0.23436   0.23257  -0.1227   0.0085   0.9999
  24.500   1.3258   0.24725   0.24562  -0.1329   0.0083   0.9999
