  
       XFOIL         Version 6.99
  
 Calculated polar for: NACA 0012                                       
  
 1 1 Reynolds number fixed          Mach number fixed         
  
 xtrf =   1.000 (top)        1.000 (bottom)  
 Mach =   0.000     Re =     1.521 e 6     Ncrit =   9.000
  
   alpha    CL        CD       CDp       CM     Top_Xtr  Bot_Xtr
  ------ -------- --------- --------- -------- -------- --------
 -12.000  -1.6338   0.02835   0.02305   0.0392   0.9999   0.0127
 -11.500  -1.6148   0.02609   0.02068   0.0434   0.9999   0.0134
 -10.500  -1.5609   0.02353   0.01743   0.0510   0.7368   0.0146
 -10.000  -1.5280   0.02233   0.01611   0.0541   0.7304   0.0151
  -9.500  -1.4983   0.02084   0.01451   0.0578   0.7256   0.0163
  -9.000  -1.4626   0.01978   0.01337   0.0608   0.7212   0.0174
  -8.500  -1.4245   0.01888   0.01239   0.0635   0.7175   0.0183
  -8.000  -1.3877   0.01782   0.01125   0.0665   0.7133   0.0199
  -7.500  -1.3472   0.01701   0.01039   0.0691   0.7095   0.0215
  -7.000  -1.3059   0.01623   0.00954   0.0716   0.7057   0.0235
  -6.500  -1.2632   0.01552   0.00881   0.0739   0.7018   0.0259
  -6.000  -1.2202   0.01480   0.00807   0.0763   0.6974   0.0290
  -5.500  -1.1774   0.01422   0.00746   0.0788   0.6933   0.0321
  -5.000  -1.1340   0.01359   0.00686   0.0812   0.6889   0.0371
  -4.500  -1.0876   0.01297   0.00627   0.0831   0.6850   0.0436
  -4.000  -1.0402   0.01237   0.00571   0.0848   0.6798   0.0523
  -3.500  -0.9926   0.01176   0.00517   0.0865   0.6752   0.0658
  -2.500  -0.8962   0.01056   0.00420   0.0896   0.6623   0.1088
  -2.000  -0.8484   0.00992   0.00375   0.0913   0.6541   0.1450
  -1.500  -0.8007   0.00930   0.00332   0.0929   0.6452   0.1903
  -1.000  -0.7533   0.00866   0.00292   0.0947   0.6343   0.2464
  -0.500  -0.7059   0.00805   0.00256   0.0964   0.6221   0.3095
  -0.000  -0.6584   0.00745   0.00222   0.0981   0.6084   0.3806
