  
       XFOIL         Version 6.99
  
 Calculated polar for: NACA 2412                                       
  
 1 1 Reynolds number fixed          Mach number fixed         
  
 xtrf =   1.000 (top)        1.000 (bottom)  
 Mach =   0.000     Re =     1.521 e 6     Ncrit =   9.000
  
   alpha    CL        CD       CDp       CM     Top_Xtr  Bot_Xtr
  ------ -------- --------- --------- -------- -------- --------
 -15.000  -1.5401   0.04796   0.04443  -0.0173   0.9999   0.0104
 -14.500  -1.5511   0.04214   0.03838  -0.0155   0.9999   0.0105
 -14.000  -1.5512   0.03788   0.03393  -0.0127   0.9999   0.0107
 -13.500  -1.5414   0.03470   0.03058  -0.0095   0.9999   0.0108
 -13.000  -1.5496   0.03037   0.02599  -0.0042   0.9999   0.0112
 -12.500  -1.5411   0.02823   0.02318   0.0010   0.7453   0.0116
 -12.000  -1.5201   0.02632   0.02109   0.0050   0.7360   0.0120
 -11.500  -1.4945   0.02472   0.01935   0.0089   0.7313   0.0124
 -11.000  -1.4658   0.02332   0.01779   0.0126   0.7265   0.0128
 -10.500  -1.4338   0.02209   0.01643   0.0161   0.7229   0.0132
 -10.000  -1.3998   0.02112   0.01533   0.0197   0.7194   0.0135
  -9.500  -1.3686   0.01954   0.01358   0.0235   0.7155   0.0143
  -9.000  -1.3271   0.01857   0.01254   0.0259   0.7121   0.0151
  -8.500  -1.2830   0.01782   0.01167   0.0279   0.7083   0.0159
  -8.000  -1.2366   0.01714   0.01092   0.0296   0.7046   0.0165
  -7.500  -1.1929   0.01603   0.00973   0.0317   0.7004   0.0179
  -7.000  -1.1450   0.01532   0.00898   0.0332   0.6965   0.0191
  -6.500  -1.0955   0.01473   0.00831   0.0345   0.6923   0.0200
  -6.000  -1.0473   0.01388   0.00744   0.0360   0.6890   0.0222
  -5.500  -0.9963   0.01334   0.00687   0.0371   0.6847   0.0238
  -5.000  -0.9461   0.01263   0.00615   0.0383   0.6803   0.0266
  -4.500  -0.8942   0.01212   0.00562   0.0392   0.6759   0.0290
  -4.000  -0.8425   0.01155   0.00507   0.0402   0.6698   0.0331
  -3.500  -0.7903   0.01102   0.00455   0.0411   0.6640   0.0381
  -3.000  -0.7376   0.01054   0.00410   0.0419   0.6564   0.0446
  -2.500  -0.6847   0.01010   0.00368   0.0427   0.6484   0.0531
  -2.000  -0.6315   0.00968   0.00331   0.0434   0.6387   0.0645
  -1.500  -0.5784   0.00926   0.00296   0.0442   0.6284   0.0816
  -1.000  -0.5252   0.00888   0.00264   0.0449   0.6164   0.1037
  -0.500  -0.4721   0.00848   0.00236   0.0456   0.6032   0.1354
  -0.000  -0.4192   0.00809   0.00210   0.0463   0.5893   0.1764
   0.500  -0.3663   0.00771   0.00188   0.0470   0.5744   0.2277
   1.000  -0.3138   0.00730   0.00168   0.0477   0.5585   0.2930
   1.500  -0.2625   0.00680   0.00148   0.0486   0.5423   0.3889
   2.500  -0.1659   0.00534   0.00111   0.0516   0.5102   0.7552
   3.000  -0.1078   0.00549   0.00117   0.0514   0.4933   0.7656
   3.500  -0.0500   0.00557   0.00123   0.0512   0.4767   0.7740
   4.000   0.0082   0.00573   0.00132   0.0510   0.4598   0.7796
   4.500   0.0661   0.00583   0.00138   0.0507   0.4423   0.7855
   5.000   0.1240   0.00597   0.00148   0.0505   0.4233   0.7901
   5.500   0.1819   0.00614   0.00158   0.0501   0.4016   0.7931
   6.000   0.2397   0.00636   0.00174   0.0498   0.3761   0.7969
   6.500   0.2973   0.00660   0.00188   0.0494   0.3460   0.7977
   7.000   0.3547   0.00683   0.00199   0.0489   0.3118   0.7970
   7.500   0.4117   0.00713   0.00216   0.0485   0.2739   0.7962
   8.000   0.4680   0.00753   0.00239   0.0480   0.2312   0.7953
   8.500   0.5236   0.00801   0.00269   0.0477   0.1869   0.7945
   9.000   0.5786   0.00855   0.00305   0.0474   0.1455   0.7937
   9.500   0.6332   0.00912   0.00346   0.0471   0.1103   0.7929
  10.000   0.6875   0.00970   0.00391   0.0469   0.0835   0.7921
  10.500   0.7413   0.01029   0.00441   0.0466   0.0641   0.7914
  11.000   0.7951   0.01086   0.00492   0.0464   0.0516   0.7907
  11.500   0.8483   0.01146   0.00549   0.0463   0.0426   0.7901
  12.000   0.9009   0.01209   0.00611   0.0462   0.0359   0.7895
  12.500   0.9530   0.01275   0.00677   0.0461   0.0312   0.7889
  13.000   1.0038   0.01349   0.00753   0.0461   0.0274   0.7883
  13.500   1.0537   0.01429   0.00834   0.0462   0.0243   0.7877
  14.000   1.1030   0.01507   0.00919   0.0463   0.0223   0.7872
  14.500   1.1499   0.01605   0.01020   0.0466   0.0203   0.7868
  15.000   1.1958   0.01705   0.01128   0.0470   0.0188   0.7863
  15.500   1.2401   0.01808   0.01237   0.0474   0.0175   0.7859
  16.000   1.2768   0.01970   0.01408   0.0483   0.0161   0.7857
  16.500   1.3153   0.02096   0.01545   0.0491   0.0155   0.7855
  17.000   1.3432   0.02262   0.01722   0.0507   0.0148   0.7854
  17.500   1.3645   0.02583   0.02058   0.0494   0.0141   0.7856
  18.000   1.3736   0.03106   0.02596   0.0462   0.0135   0.7859
  18.500   1.3713   0.03702   0.03210   0.0440   0.0130   0.7862
  19.000   1.3755   0.04227   0.03750   0.0422   0.0128   0.7866
  19.500   1.3713   0.04861   0.04400   0.0399   0.0125   0.7871
  20.000   1.3588   0.05617   0.05174   0.0370   0.0122   0.7876
  20.500   1.3418   0.06482   0.06057   0.0334   0.0120   0.7881
  21.000   1.3189   0.07474   0.07068   0.0291   0.0118   0.7887
  21.500   1.2901   0.08592   0.08204   0.0240   0.0117   0.7893
  22.000   1.2555   0.09845   0.09477   0.0182   0.0115   0.7899
  22.500   1.2187   0.11179   0.10831   0.0119   0.0114   0.7905
  23.000   1.1818   0.12559   0.12229   0.0050   0.0113   0.7912
  23.500   1.1471   0.13958   0.13645  -0.0023   0.0112   0.7919
  24.000   1.1171   0.15335   0.15037  -0.0100   0.0110   0.7928
  24.500   1.0946   0.16600   0.16315  -0.0176   0.0107   0.7937
  25.000   1.0779   0.17802   0.17530  -0.0251   0.0104   0.7950
