  
       XFOIL         Version 6.99
  
 Calculated polar for: NACA 0012                                       
  
 1 1 Reynolds number fixed          Mach number fixed         
  
 xtrf =   1.000 (top)        1.000 (bottom)  
 Mach =   0.000     Re =     2.332 e 6     Ncrit =   9.000
  
   alpha    CL        CD       CDp       CM     Top_Xtr  Bot_Xtr
  ------ -------- --------- --------- -------- -------- --------
 -12.000  -0.0265   0.01797   0.01366  -0.1929   0.7682   0.0596
 -11.500   0.0118   0.01978   0.01551  -0.1907   0.7695   0.0706
 -11.000   0.0600   0.02051   0.01630  -0.1901   0.7697   0.0843
 -10.500   0.1102   0.02100   0.01687  -0.1897   0.7698   0.1045
 -10.000   0.1608   0.02144   0.01739  -0.1894   0.7698   0.1272
  -9.500   0.2118   0.02185   0.01790  -0.1891   0.7699   0.1554
  -9.000   0.2628   0.02229   0.01844  -0.1887   0.7699   0.1859
  -8.500   0.3138   0.02274   0.01899  -0.1883   0.7700   0.2168
  -8.000   0.3646   0.02322   0.01956  -0.1878   0.7700   0.2472
  -7.500   0.4154   0.02342   0.01986  -0.1871   0.7700   0.2786
  -7.000   0.4652   0.02335   0.01989  -0.1863   0.7698   0.3071
  -6.500   0.4593   0.02418   0.02079  -0.1772   0.7666   0.3253
  -6.000   0.7232   0.00959   0.00584  -0.2089   0.7357   0.3878
  -5.500   0.7917   0.00833   0.00450  -0.2110   0.7311   0.4120
  -5.000   0.8490   0.00820   0.00443  -0.2112   0.7287   0.4323
  -4.500   0.9195   0.00654   0.00272  -0.2137   0.7307   0.4528
  -4.000   0.9784   0.00608   0.00233  -0.2140   0.7273   0.4708
  -3.500   0.9737   0.00823   0.00366  -0.2019   0.4917   0.4835
  -3.000   0.9595   0.01025   0.00542  -0.1883   0.4093   0.4946
  -2.500   0.9538   0.01386   0.00884  -0.1788   0.3423   0.5052
  -2.000   0.9657   0.01650   0.01130  -0.1721   0.2832   0.5180
  -1.500   0.9878   0.01816   0.01275  -0.1665   0.2305   0.5297
  -1.000   1.0157   0.01938   0.01375  -0.1618   0.1802   0.5405
  -0.000   1.0862   0.02107   0.01511  -0.1545   0.1068   0.5624
