  
       XFOIL         Version 6.99
  
 Calculated polar for: NACA 2412                                       
  
 1 1 Reynolds number fixed          Mach number fixed         
  
 xtrf =   1.000 (top)        1.000 (bottom)  
 Mach =   0.000     Re =     2.332 e 6     Ncrit =   9.000
  
   alpha    CL        CD       CDp       CM     Top_Xtr  Bot_Xtr
  ------ -------- --------- --------- -------- -------- --------
 -15.000  -0.3602   0.01275   0.00801  -0.2038   0.7478   0.0185
 -14.500  -0.3030   0.01219   0.00741  -0.2051   0.7483   0.0197
 -14.000  -0.2456   0.01179   0.00696  -0.2063   0.7488   0.0205
 -13.500  -0.1884   0.01122   0.00637  -0.2075   0.7494   0.0229
 -13.000  -0.1309   0.01092   0.00605  -0.2086   0.7500   0.0244
 -12.500  -0.0734   0.01055   0.00569  -0.2097   0.7506   0.0276
 -12.000  -0.0158   0.01032   0.00545  -0.2106   0.7512   0.0302
 -11.500   0.0418   0.01011   0.00526  -0.2115   0.7518   0.0340
 -11.000   0.0995   0.00991   0.00509  -0.2124   0.7525   0.0393
 -10.500   0.1572   0.00976   0.00497  -0.2133   0.7532   0.0455
 -10.000   0.2148   0.00965   0.00490  -0.2141   0.7539   0.0537
  -9.500   0.2725   0.00955   0.00485  -0.2148   0.7545   0.0638
  -9.000   0.3310   0.00933   0.00467  -0.2157   0.7542   0.0778
  -8.500   0.3903   0.00895   0.00435  -0.2166   0.7532   0.0967
  -8.000   0.4492   0.00870   0.00416  -0.2174   0.7526   0.1169
  -7.500   0.5083   0.00842   0.00396  -0.2182   0.7521   0.1447
  -7.000   0.5677   0.00812   0.00374  -0.2191   0.7516   0.1755
  -6.500   0.6271   0.00784   0.00355  -0.2199   0.7514   0.2078
  -6.000   0.6867   0.00757   0.00337  -0.2207   0.7524   0.2436
  -5.500   0.7469   0.00734   0.00324  -0.2217   0.7558   0.2797
  -5.000   0.8062   0.00708   0.00306  -0.2224   0.7553   0.3158
  -4.500   0.8654   0.00678   0.00285  -0.2230   0.7536   0.3521
  -4.000   0.9247   0.00644   0.00258  -0.2237   0.7509   0.3912
  -3.500   0.9832   0.00619   0.00240  -0.2241   0.7472   0.4329
  -3.000   1.0405   0.00598   0.00230  -0.2243   0.7433   0.4727
  -2.500   1.0977   0.00560   0.00200  -0.2243   0.7360   0.5043
  -2.000   1.1233   0.00665   0.00256  -0.2180   0.5953   0.5257
  -1.500   1.1300   0.00808   0.00361  -0.2079   0.4974   0.5427
  -1.000   1.1431   0.00929   0.00465  -0.1994   0.4472   0.5576
  -0.500   1.1636   0.01069   0.00594  -0.1929   0.4069   0.5711
  -0.000   1.1821   0.01254   0.00764  -0.1866   0.3614   0.5841
   0.500   1.2030   0.01439   0.00931  -0.1809   0.3125   0.5951
   1.000   1.2270   0.01602   0.01070  -0.1757   0.2612   0.6044
   1.500   1.2547   0.01737   0.01183  -0.1709   0.2093   0.6139
   2.000   1.2851   0.01860   0.01281  -0.1666   0.1619   0.6215
   2.500   1.3178   0.01971   0.01371  -0.1628   0.1202   0.6291
   3.000   1.3536   0.02071   0.01454  -0.1594   0.0899   0.6358
   3.500   1.3909   0.02166   0.01536  -0.1563   0.0686   0.6415
   4.000   1.4285   0.02259   0.01621  -0.1533   0.0536   0.6472
   4.500   1.4663   0.02354   0.01709  -0.1503   0.0424   0.6527
   5.000   1.5042   0.02450   0.01801  -0.1475   0.0353   0.6566
   5.500   1.5407   0.02554   0.01904  -0.1444   0.0298   0.6598
   6.000   1.5773   0.02659   0.02008  -0.1415   0.0264   0.6631
   6.500   1.6135   0.02766   0.02116  -0.1385   0.0232   0.6663
   7.000   1.6481   0.02885   0.02235  -0.1354   0.0204   0.6688
   7.500   1.6818   0.03007   0.02361  -0.1322   0.0187   0.6708
   8.000   1.7124   0.03153   0.02509  -0.1286   0.0167   0.6729
   8.500   1.7446   0.03288   0.02649  -0.1254   0.0157   0.6752
   9.000   1.7733   0.03448   0.02811  -0.1218   0.0142   0.6779
   9.500   1.8000   0.03623   0.02993  -0.1180   0.0134   0.6795
  10.000   1.8270   0.03797   0.03175  -0.1144   0.0127   0.6808
  10.500   1.8511   0.03996   0.03379  -0.1105   0.0118   0.6825
  11.000   1.8686   0.04248   0.03641  -0.1061   0.0109   0.6842
  11.500   1.8916   0.04460   0.03861  -0.1024   0.0106   0.6862
  12.000   1.9095   0.04719   0.04128  -0.0984   0.0101   0.6880
  12.500   1.9264   0.04993   0.04411  -0.0945   0.0097   0.6892
  13.000   1.9361   0.05336   0.04765  -0.0903   0.0091   0.6904
  13.500   1.9388   0.05760   0.05204  -0.0858   0.0086   0.6919
  14.000   1.9487   0.06130   0.05586  -0.0823   0.0085   0.6936
  14.500   1.9532   0.06572   0.06041  -0.0789   0.0083   0.6948
  15.000   1.9523   0.07103   0.06589  -0.0760   0.0081   0.6958
  15.500   1.9479   0.07720   0.07221  -0.0740   0.0079   0.6967
  16.000   1.9400   0.08415   0.07933  -0.0729   0.0077   0.6979
  16.500   1.9258   0.09219   0.08756  -0.0728   0.0075   0.6991
  17.000   1.9071   0.10111   0.09667  -0.0736   0.0073   0.7001
  17.500   1.8826   0.11115   0.10690  -0.0758   0.0071   0.7008
  18.000   1.8529   0.12222   0.11819  -0.0794   0.0069   0.7013
  18.500   1.8179   0.13465   0.13085  -0.0848   0.0068   0.7018
  19.000   1.7795   0.14824   0.14470  -0.0922   0.0066   0.7022
  19.500   1.7475   0.16105   0.15773  -0.1001   0.0065   0.7027
  20.000   1.7165   0.17424   0.17114  -0.1091   0.0065   0.7031
  20.500   1.6869   0.18763   0.18474  -0.1191   0.0065   0.7036
  21.000   1.6568   0.20166   0.19897  -0.1302   0.0064   0.7041
  21.500   1.6253   0.21653   0.21405  -0.1427   0.0064   0.7046
  22.000   1.5960   0.23154   0.22924  -0.1558   0.0063   0.7050
  22.500   1.5705   0.24636   0.24424  -0.1690   0.0063   0.7053
  23.000   1.5545   0.25911   0.25712  -0.1805   0.0061   0.7057
  23.500   1.5423   0.27114   0.26928  -0.1915   0.0060   0.7061
  24.000   1.5328   0.28273   0.28098  -0.2022   0.0058   0.7066
  24.500   1.5254   0.29397   0.29232  -0.2127   0.0056   0.7070
  25.000   1.5192   0.30516   0.30359  -0.2231   0.0053   0.7073
