  
       XFOIL         Version 6.99
  
 Calculated polar for: NACA 2412                                       
  
 1 1 Reynolds number fixed          Mach number fixed         
  
 xtrf =   1.000 (top)        1.000 (bottom)  
 Mach =   0.000     Re =     2.332 e 6     Ncrit =   9.000
  
   alpha    CL        CD       CDp       CM     Top_Xtr  Bot_Xtr
  ------ -------- --------- --------- -------- -------- --------
  -5.000  -1.0769   0.01247   0.00633   0.0565   0.6587   0.0211
  -4.500  -1.0261   0.01201   0.00585   0.0577   0.6533   0.0225
  -4.000  -0.9757   0.01145   0.00529   0.0590   0.6464   0.0256
  -3.500  -0.9243   0.01100   0.00484   0.0601   0.6397   0.0286
  -3.000  -0.8725   0.01059   0.00442   0.0611   0.6311   0.0319
  -2.500  -0.8208   0.01015   0.00402   0.0622   0.6227   0.0373
  -1.500  -0.7163   0.00939   0.00330   0.0641   0.6017   0.0524
  -1.000  -0.6639   0.00902   0.00298   0.0650   0.5899   0.0656
  -0.500  -0.6115   0.00867   0.00268   0.0659   0.5767   0.0825
   0.000  -0.5590   0.00833   0.00241   0.0667   0.5627   0.1051
   0.500  -0.5065   0.00798   0.00217   0.0676   0.5489   0.1349
   1.000  -0.4540   0.00765   0.00195   0.0684   0.5344   0.1736
   1.500  -0.4017   0.00730   0.00175   0.0692   0.5195   0.2233
   2.000  -0.3498   0.00691   0.00156   0.0701   0.5045   0.2887
   2.500  -0.2987   0.00647   0.00138   0.0710   0.4897   0.3771
   3.000  -0.2598   0.00497   0.00101   0.0741   0.4752   0.6952
   3.500  -0.2019   0.00496   0.00095   0.0738   0.4598   0.7386
   4.000  -0.1432   0.00512   0.00105   0.0735   0.4452   0.7454
   4.500  -0.0843   0.00531   0.00117   0.0731   0.4293   0.7482
   5.000  -0.0260   0.00540   0.00122   0.0727   0.4125   0.7535
   5.500   0.0323   0.00557   0.00134   0.0723   0.3914   0.7567
   6.000   0.0907   0.00575   0.00147   0.0719   0.3688   0.7592
   6.500   0.1488   0.00601   0.00164   0.0714   0.3412   0.7617
   7.000   0.2069   0.00639   0.00193   0.0710   0.3100   0.7644
   7.500   0.2645   0.00664   0.00206   0.0705   0.2755   0.7644
   8.000   0.3218   0.00689   0.00218   0.0699   0.2388   0.7639
   8.500   0.3784   0.00725   0.00237   0.0694   0.1974   0.7634
   9.000   0.4348   0.00763   0.00260   0.0689   0.1594   0.7629
   9.500   0.4906   0.00809   0.00289   0.0685   0.1227   0.7623
  10.000   0.5463   0.00855   0.00323   0.0680   0.0937   0.7617
  10.500   0.6018   0.00900   0.00358   0.0676   0.0735   0.7611
  11.000   0.6571   0.00946   0.00397   0.0671   0.0579   0.7605
  11.500   0.7120   0.00994   0.00438   0.0667   0.0469   0.7599
  12.000   0.7664   0.01044   0.00484   0.0663   0.0387   0.7592
  12.500   0.8207   0.01095   0.00533   0.0659   0.0330   0.7586
  13.000   0.8744   0.01148   0.00586   0.0655   0.0286   0.7581
  13.500   0.9274   0.01207   0.00645   0.0652   0.0251   0.7575
  14.000   0.9795   0.01273   0.00711   0.0649   0.0222   0.7570
  14.500   1.0314   0.01335   0.00777   0.0646   0.0204   0.7564
  15.000   1.0814   0.01417   0.00861   0.0645   0.0182   0.7559
