  
       XFOIL         Version 6.99
  
 Calculated polar for: NACA 2412                                       
  
 1 1 Reynolds number fixed          Mach number fixed         
  
 xtrf =   1.000 (top)        1.000 (bottom)  
 Mach =   0.000     Re =     2.332 e 6     Ncrit =   9.000
  
   alpha    CL        CD       CDp       CM     Top_Xtr  Bot_Xtr
  ------ -------- --------- --------- -------- -------- --------
 -15.000  -0.5008   0.01286   0.00809  -0.1832   0.7545   0.0168
 -14.500  -0.4449   0.01222   0.00741  -0.1844   0.7550   0.0180
 -14.000  -0.3883   0.01173   0.00688  -0.1855   0.7554   0.0190
 -13.500  -0.3316   0.01116   0.00625  -0.1866   0.7559   0.0205
 -13.000  -0.2746   0.01072   0.00579  -0.1876   0.7563   0.0222
 -12.500  -0.2173   0.01036   0.00539  -0.1885   0.7568   0.0239
 -12.000  -0.1599   0.00999   0.00503  -0.1894   0.7572   0.0265
 -11.500  -0.1023   0.00969   0.00471  -0.1903   0.7576   0.0293
 -11.000  -0.0445   0.00948   0.00450  -0.1912   0.7580   0.0323
 -10.500   0.0132   0.00924   0.00428  -0.1920   0.7583   0.0374
 -10.000   0.0710   0.00906   0.00412  -0.1928   0.7586   0.0434
  -9.500   0.1288   0.00892   0.00402  -0.1936   0.7589   0.0510
  -9.000   0.1868   0.00878   0.00392  -0.1943   0.7591   0.0605
  -8.000   0.3088   0.00752   0.00275  -0.1967   0.7642   0.0924
  -7.500   0.3675   0.00731   0.00261  -0.1974   0.7638   0.1137
  -7.000   0.4262   0.00712   0.00249  -0.1982   0.7630   0.1391
  -6.500   0.4848   0.00695   0.00242  -0.1988   0.7621   0.1698
  -6.000   0.5430   0.00687   0.00244  -0.1994   0.7608   0.2030
  -5.500   0.6003   0.00693   0.00262  -0.1999   0.7592   0.2386
  -5.000   0.6597   0.00661   0.00239  -0.2006   0.7585   0.2755
  -4.500   0.7187   0.00632   0.00221  -0.2012   0.7573   0.3141
  -4.000   0.7773   0.00605   0.00205  -0.2017   0.7551   0.3548
  -3.500   0.8358   0.00582   0.00192  -0.2022   0.7523   0.3959
  -3.000   0.8938   0.00556   0.00176  -0.2025   0.7478   0.4417
  -2.500   0.9511   0.00542   0.00172  -0.2027   0.7429   0.4841
  -2.000   1.0086   0.00519   0.00159  -0.2028   0.7337   0.5174
  -1.500   1.0292   0.00671   0.00242  -0.1956   0.5524   0.5390
  -1.000   1.0606   0.00760   0.00303  -0.1905   0.4789   0.5582
  -0.500   1.0888   0.00827   0.00356  -0.1848   0.4335   0.5750
  -0.000   1.1167   0.00909   0.00426  -0.1791   0.3922   0.5895
   0.500   1.1429   0.01018   0.00518  -0.1736   0.3462   0.6017
   1.500   1.1972   0.01279   0.00737  -0.1635   0.2448   0.6222
   2.000   1.2277   0.01404   0.00838  -0.1592   0.1941   0.6302
   2.500   1.2603   0.01523   0.00935  -0.1552   0.1476   0.6383
   3.000   1.2952   0.01633   0.01023  -0.1517   0.1090   0.6449
   3.500   1.3321   0.01734   0.01110  -0.1485   0.0820   0.6510
   4.000   1.3700   0.01831   0.01196  -0.1455   0.0634   0.6570
   4.500   1.4087   0.01922   0.01281  -0.1427   0.0503   0.6621
   5.000   1.4471   0.02017   0.01371  -0.1399   0.0411   0.6657
   5.500   1.4848   0.02116   0.01466  -0.1370   0.0344   0.6692
   6.000   1.5222   0.02215   0.01563  -0.1342   0.0295   0.6725
   6.500   1.5587   0.02320   0.01667  -0.1312   0.0252   0.6749
   7.000   1.5940   0.02433   0.01780  -0.1281   0.0225   0.6772
   7.500   1.6287   0.02547   0.01898  -0.1250   0.0203   0.6796
   8.000   1.6620   0.02672   0.02023  -0.1218   0.0183   0.6824
   8.500   1.6939   0.02807   0.02163  -0.1185   0.0168   0.6843
   9.000   1.7248   0.02948   0.02308  -0.1151   0.0155   0.6861
   9.500   1.7523   0.03114   0.02479  -0.1114   0.0141   0.6881
  10.000   1.7808   0.03274   0.02646  -0.1080   0.0135   0.6903
  10.500   1.8073   0.03451   0.02828  -0.1043   0.0126   0.6924
  11.000   1.8275   0.03676   0.03060  -0.1001   0.0116   0.6938
  11.500   1.8511   0.03879   0.03273  -0.0965   0.0111   0.6957
  12.000   1.8713   0.04112   0.03515  -0.0927   0.0107   0.6976
  12.500   1.8901   0.04360   0.03770  -0.0889   0.0102   0.6991
  13.000   1.9031   0.04666   0.04086  -0.0848   0.0096   0.7005
  13.500   1.9089   0.05049   0.04484  -0.0804   0.0090   0.7021
  14.000   1.9209   0.05385   0.04832  -0.0769   0.0089   0.7035
  14.500   1.9289   0.05775   0.05234  -0.0735   0.0087   0.7048
  15.000   1.9325   0.06233   0.05706  -0.0704   0.0084   0.7059
  15.500   1.9313   0.06782   0.06271  -0.0680   0.0082   0.7074
  16.000   1.9259   0.07418   0.06924  -0.0663   0.0080   0.7087
  16.500   1.9152   0.08165   0.07687  -0.0657   0.0077   0.7096
  17.000   1.8982   0.09028   0.08569  -0.0661   0.0075   0.7104
  17.500   1.8723   0.10038   0.09601  -0.0677   0.0073   0.7111
  18.000   1.8382   0.11212   0.10799  -0.0710   0.0071   0.7116
  18.500   1.7985   0.12516   0.12129  -0.0760   0.0069   0.7120
  19.000   1.7728   0.13628   0.13261  -0.0810   0.0069   0.7127
  19.500   1.7442   0.14832   0.14485  -0.0876   0.0068   0.7134
  20.000   1.7153   0.16072   0.15746  -0.0951   0.0068   0.7142
  20.500   1.6834   0.17417   0.17112  -0.1043   0.0067   0.7147
  21.000   1.6484   0.18894   0.18611  -0.1153   0.0067   0.7150
  21.500   1.6158   0.20378   0.20116  -0.1270   0.0066   0.7154
  22.000   1.5832   0.21929   0.21688  -0.1400   0.0066   0.7157
  22.500   1.5548   0.23447   0.23224  -0.1530   0.0065   0.7159
  23.000   1.5357   0.24780   0.24572  -0.1647   0.0064   0.7163
  23.500   1.5170   0.26171   0.25977  -0.1771   0.0062   0.7167
  24.000   1.5062   0.27366   0.27184  -0.1878   0.0060   0.7172
  24.500   1.4979   0.28521   0.28348  -0.1983   0.0058   0.7177
  25.000   1.4921   0.29621   0.29456  -0.2083   0.0056   0.7183
