  
       XFOIL         Version 6.99
  
 Calculated polar for: NACA 2412                                       
  
 1 1 Reynolds number fixed          Mach number fixed         
  
 xtrf =   1.000 (top)        1.000 (bottom)  
 Mach =   0.000     Re =     2.332 e 6     Ncrit =   9.000
  
   alpha    CL        CD       CDp       CM     Top_Xtr  Bot_Xtr
  ------ -------- --------- --------- -------- -------- --------
 -15.000  -1.6033   0.02811   0.02406  -0.0260   0.9999   0.0094
 -14.500  -1.5882   0.02583   0.02164  -0.0221   0.9999   0.0097
 -14.000  -1.5678   0.02401   0.01972  -0.0182   0.9999   0.0099
 -13.500  -1.5434   0.02254   0.01814  -0.0142   0.9999   0.0102
 -13.000  -1.5154   0.02131   0.01682  -0.0102   0.9999   0.0105
 -12.500  -1.4800   0.02020   0.01562  -0.0073   0.9999   0.0108
 -12.000  -1.4406   0.01920   0.01454  -0.0049   0.9999   0.0110
 -11.500  -1.4045   0.01771   0.01293  -0.0021   0.9999   0.0116
 -11.000  -1.3623   0.01667   0.01183  -0.0000   0.9999   0.0123
 -10.500  -1.3173   0.01627   0.01087   0.0018   0.7668   0.0128
 -10.000  -1.2705   0.01562   0.01005   0.0032   0.7351   0.0133
  -9.500  -1.2220   0.01499   0.00932   0.0044   0.7269   0.0137
  -9.000  -1.1748   0.01407   0.00833   0.0059   0.7221   0.0150
  -8.500  -1.1248   0.01348   0.00768   0.0069   0.7170   0.0160
  -8.000  -1.0736   0.01298   0.00712   0.0078   0.7123   0.0166
  -7.500  -1.0233   0.01231   0.00640   0.0088   0.7080   0.0183
  -7.000  -0.9712   0.01183   0.00589   0.0096   0.7040   0.0196
  -6.500  -0.9186   0.01130   0.00533   0.0103   0.7002   0.0214
  -6.000  -0.8655   0.01084   0.00487   0.0110   0.6959   0.0235
  -5.500  -0.8120   0.01035   0.00439   0.0115   0.6921   0.0261
  -5.000  -0.7575   0.00995   0.00399   0.0120   0.6870   0.0285
  -4.500  -0.7034   0.00951   0.00357   0.0125   0.6817   0.0332
  -4.000  -0.6486   0.00910   0.00319   0.0129   0.6748   0.0385
  -3.500  -0.5937   0.00874   0.00285   0.0132   0.6668   0.0456
  -3.000  -0.5385   0.00840   0.00254   0.0135   0.6568   0.0543
  -2.500  -0.4833   0.00806   0.00226   0.0138   0.6459   0.0676
  -2.000  -0.4280   0.00775   0.00200   0.0141   0.6328   0.0847
  -1.500  -0.3727   0.00745   0.00177   0.0144   0.6178   0.1075
  -1.000  -0.3174   0.00717   0.00157   0.0146   0.6013   0.1376
  -0.500  -0.2620   0.00691   0.00140   0.0148   0.5836   0.1747
  -0.000  -0.2068   0.00664   0.00125   0.0151   0.5647   0.2215
   0.500  -0.1515   0.00639   0.00113   0.0153   0.5453   0.2778
   1.000  -0.0966   0.00611   0.00103   0.0155   0.5256   0.3481
   1.500  -0.0431   0.00568   0.00092   0.0159   0.5059   0.4693
   2.000   0.0058   0.00474   0.00077   0.0171   0.4878   0.7368
   2.500   0.0636   0.00479   0.00082   0.0169   0.4694   0.7621
   3.000   0.1216   0.00488   0.00086   0.0166   0.4512   0.7732
   3.500   0.1798   0.00500   0.00092   0.0163   0.4321   0.7812
   4.000   0.2378   0.00513   0.00098   0.0160   0.4112   0.7869
   4.500   0.2954   0.00528   0.00107   0.0157   0.3859   0.7929
   5.000   0.3529   0.00551   0.00119   0.0154   0.3555   0.7987
   5.500   0.4098   0.00575   0.00133   0.0152   0.3216   0.8050
   6.000   0.4663   0.00604   0.00151   0.0150   0.2848   0.8108
   6.500   0.5223   0.00644   0.00174   0.0148   0.2419   0.8124
   7.000   0.5779   0.00688   0.00200   0.0146   0.1980   0.8128
   7.500   0.6331   0.00737   0.00231   0.0144   0.1569   0.8133
   8.000   0.6876   0.00790   0.00267   0.0144   0.1196   0.8138
   8.500   0.7420   0.00843   0.00306   0.0143   0.0912   0.8145
   9.000   0.7960   0.00896   0.00348   0.0143   0.0695   0.8154
   9.500   0.8498   0.00949   0.00393   0.0143   0.0549   0.8162
  10.000   0.9032   0.01002   0.00440   0.0143   0.0439   0.8172
  11.000   1.0087   0.01107   0.00543   0.0145   0.0311   0.8229
  11.500   1.0602   0.01167   0.00604   0.0148   0.0267   0.8265
  12.000   1.1116   0.01223   0.00661   0.0150   0.0241   0.8307
  13.000   1.2106   0.01356   0.00802   0.0158   0.0193   0.8458
  13.500   1.2585   0.01426   0.00881   0.0165   0.0179   0.8594
  14.000   1.3045   0.01498   0.00964   0.0173   0.0164   0.8832
  14.500   1.3452   0.01580   0.01066   0.0191   0.0151   0.9339
  15.000   1.3925   0.01660   0.01161   0.0194   0.0143   1.0001
  15.500   1.4319   0.01766   0.01271   0.0209   0.0134   1.0001
  16.000   1.4636   0.01913   0.01425   0.0232   0.0123   1.0001
  16.500   1.4916   0.02035   0.01556   0.0261   0.0121   1.0001
  17.000   1.5152   0.02203   0.01733   0.0286   0.0116   1.0001
  17.500   1.5351   0.02446   0.01986   0.0298   0.0111   1.0001
  18.000   1.5522   0.02831   0.02382   0.0285   0.0107   1.0001
  18.500   1.5579   0.03333   0.02899   0.0272   0.0101   1.0001
  19.000   1.5551   0.03917   0.03500   0.0259   0.0098   1.0001
  19.500   1.5544   0.04490   0.04088   0.0244   0.0097   1.0001
  20.000   1.5459   0.05170   0.04784   0.0225   0.0096   1.0001
  20.500   1.5296   0.05979   0.05610   0.0198   0.0094   1.0001
  21.000   1.5091   0.06901   0.06550   0.0163   0.0093   1.0001
  21.500   1.4815   0.07957   0.07625   0.0120   0.0092   1.0001
  22.000   1.4457   0.09177   0.08866   0.0068   0.0091   1.0001
  22.500   1.4039   0.10538   0.10248   0.0006   0.0090   1.0001
  23.000   1.3573   0.12025   0.11757  -0.0065   0.0090   1.0001
  23.500   1.3065   0.13657   0.13411  -0.0150   0.0089   1.0001
  24.000   1.2618   0.15268   0.15043  -0.0241   0.0089   1.0001
  24.500   1.2216   0.16869   0.16663  -0.0337   0.0088   1.0001
  25.000   1.1888   0.18421   0.18231  -0.0437   0.0087   1.0001
