  
       XFOIL         Version 6.99
  
 Calculated polar for: NACA 0012                                       
  
 1 1 Reynolds number fixed          Mach number fixed         
  
 xtrf =   1.000 (top)        1.000 (bottom)  
 Mach =   0.000     Re =     2.332 e 6     Ncrit =   9.000
  
   alpha    CL        CD       CDp       CM     Top_Xtr  Bot_Xtr
  ------ -------- --------- --------- -------- -------- --------
 -12.000  -1.8380   0.03804   0.03241   0.0667   0.6850   0.0097
 -11.500  -1.8173   0.03585   0.03013   0.0707   0.6836   0.0101
 -11.000  -1.7946   0.03388   0.02807   0.0747   0.6823   0.0105
 -10.500  -1.7680   0.03217   0.02627   0.0784   0.6809   0.0109
 -10.000  -1.7394   0.03063   0.02465   0.0819   0.6785   0.0111
  -9.500  -1.7130   0.02890   0.02283   0.0860   0.6763   0.0119
  -9.000  -1.6819   0.02749   0.02137   0.0895   0.6743   0.0127
  -8.500  -1.6486   0.02624   0.02007   0.0927   0.6723   0.0134
  -8.000  -1.6129   0.02517   0.01894   0.0957   0.6702   0.0139
  -7.500  -1.5778   0.02397   0.01770   0.0989   0.6674   0.0152
  -7.000  -1.5402   0.02295   0.01666   0.1018   0.6642   0.0164
  -6.500  -1.5011   0.02205   0.01572   0.1045   0.6610   0.0172
  -6.000  -1.4623   0.02108   0.01473   0.1073   0.6574   0.0192
  -5.500  -1.4209   0.02029   0.01392   0.1098   0.6538   0.0207
  -5.000  -1.3800   0.01945   0.01309   0.1124   0.6493   0.0234
  -4.500  -1.3377   0.01873   0.01234   0.1147   0.6443   0.0254
  -4.000  -1.2957   0.01796   0.01159   0.1172   0.6393   0.0294
  -3.500  -1.2531   0.01723   0.01089   0.1196   0.6334   0.0341
  -3.000  -1.2100   0.01655   0.01022   0.1219   0.6260   0.0398
  -2.500  -1.1669   0.01586   0.00958   0.1242   0.6198   0.0479
  -2.000  -1.1239   0.01518   0.00894   0.1266   0.6113   0.0580
  -1.500  -1.0815   0.01447   0.00830   0.1290   0.6033   0.0723
  -1.000  -1.0401   0.01373   0.00764   0.1316   0.5929   0.0923
  -0.500  -1.0003   0.01291   0.00696   0.1345   0.5835   0.1199
  -0.000  -0.9623   0.01203   0.00622   0.1377   0.5722   0.1548
