  
       XFOIL         Version 6.99
  
 Calculated polar for: NACA 0012                                       
  
 1 1 Reynolds number fixed          Mach number fixed         
  
 xtrf =   1.000 (top)        1.000 (bottom)  
 Mach =   0.000     Re =     1.521 e 6     Ncrit =   9.000
  
   alpha    CL        CD       CDp       CM     Top_Xtr  Bot_Xtr
  ------ -------- --------- --------- -------- -------- --------
 -12.000   0.0914   0.04351   0.03917  -0.2031   0.7698   0.0861
 -11.500   0.1474   0.04444   0.04018  -0.2040   0.7700   0.1096
 -11.000   0.2003   0.04532   0.04112  -0.2042   0.7702   0.1335
 -10.500   0.2528   0.04614   0.04202  -0.2043   0.7703   0.1620
 -10.000   0.3051   0.04692   0.04289  -0.2043   0.7703   0.1945
  -9.500   0.3569   0.04771   0.04376  -0.2042   0.7704   0.2266
  -9.000   0.4084   0.04849   0.04463  -0.2039   0.7704   0.2560
  -8.500   0.4596   0.04928   0.04549  -0.2034   0.7705   0.2856
  -8.000   0.5104   0.05002   0.04631  -0.2029   0.7705   0.3143
  -7.500   0.5575   0.05042   0.04676  -0.2017   0.7705   0.3391
  -7.000   0.6039   0.05070   0.04713  -0.2004   0.7704   0.3623
  -6.500   0.6502   0.05100   0.04750  -0.1990   0.7704   0.3852
  -6.000   0.6955   0.05119   0.04775  -0.1974   0.7703   0.4052
  -5.500   0.7369   0.05117   0.04780  -0.1951   0.7701   0.4230
  -5.000   0.7467   0.04993   0.04663  -0.1882   0.7686   0.4368
  -4.500   0.8605   0.04314   0.03988  -0.1945   0.7413   0.4603
  -4.000   0.9364   0.03997   0.03677  -0.1966   0.7310   0.4783
  -3.500   0.9447   0.04256   0.03945  -0.1900   0.7221   0.4888
  -3.000   0.9919   0.04098   0.03648  -0.1883   0.4455   0.5014
  -2.500   1.0310   0.04120   0.03619  -0.1853   0.3401   0.5139
  -2.000   1.0756   0.04113   0.03573  -0.1831   0.2610   0.5246
  -1.500   1.1174   0.04131   0.03557  -0.1804   0.1940   0.5351
  -1.000   1.1590   0.04157   0.03556  -0.1777   0.1403   0.5448
  -0.500   1.2010   0.04185   0.03563  -0.1750   0.1031   0.5539
  -0.000   1.2444   0.04211   0.03575  -0.1725   0.0788   0.5621
