  
       XFOIL         Version 6.99
  
 Calculated polar for: NACA 2412                                       
  
 1 1 Reynolds number fixed          Mach number fixed         
  
 xtrf =   1.000 (top)        1.000 (bottom)  
 Mach =   0.000     Re =     2.332 e 6     Ncrit =   9.000
  
   alpha    CL        CD       CDp       CM     Top_Xtr  Bot_Xtr
  ------ -------- --------- --------- -------- -------- --------
 -15.000  -0.0747   0.04104   0.03727  -0.2336   0.7615   0.0231
 -14.500  -0.0202   0.04143   0.03762  -0.2350   0.7615   0.0256
 -14.000   0.0315   0.04198   0.03813  -0.2355   0.7615   0.0270
 -13.500   0.0849   0.04245   0.03859  -0.2363   0.7615   0.0306
 -13.000   0.1366   0.04302   0.03912  -0.2366   0.7615   0.0339
 -12.500   0.1876   0.04363   0.03973  -0.2367   0.7616   0.0375
 -12.000   0.2391   0.04423   0.04033  -0.2368   0.7616   0.0434
 -11.500   0.2901   0.04485   0.04097  -0.2367   0.7616   0.0502
 -11.000   0.3408   0.04550   0.04164  -0.2366   0.7616   0.0591
 -10.500   0.3913   0.04616   0.04233  -0.2363   0.7616   0.0698
 -10.000   0.4409   0.04679   0.04300  -0.2358   0.7616   0.0822
  -9.500   0.4898   0.04739   0.04365  -0.2352   0.7616   0.0999
  -9.000   0.5388   0.04802   0.04435  -0.2346   0.7616   0.1219
  -8.500   0.5867   0.04864   0.04503  -0.2337   0.7616   0.1436
  -8.000   0.6345   0.04927   0.04574  -0.2327   0.7616   0.1693
  -7.500   0.6814   0.04991   0.04646  -0.2317   0.7616   0.1981
  -7.000   0.7272   0.05054   0.04718  -0.2303   0.7616   0.2268
  -6.500   0.7713   0.05121   0.04793  -0.2288   0.7615   0.2551
  -6.000   0.8103   0.05200   0.04880  -0.2264   0.7614   0.2824
  -5.500   0.8424   0.05274   0.04963  -0.2231   0.7611   0.3089
  -5.000   0.8516   0.05071   0.04766  -0.2162   0.7530   0.3300
  -4.500   0.9899   0.04495   0.04197  -0.2272   0.7473   0.3772
  -3.500   1.4741   0.01430   0.01075  -0.2845   0.6380   0.4906
  -3.000   1.1674   0.04047   0.03745  -0.2285   0.6550   0.4681
  -2.500   1.1570   0.04441   0.04061  -0.2186   0.5154   0.4826
  -2.000   1.2050   0.04419   0.04005  -0.2171   0.4488   0.5026
  -1.500   1.2465   0.04464   0.04029  -0.2147   0.4015   0.5181
  -1.000   1.2859   0.04515   0.04050  -0.2119   0.3424   0.5308
  -0.500   1.3267   0.04547   0.04054  -0.2093   0.2842   0.5429
  -0.000   1.3699   0.04547   0.04020  -0.2069   0.2210   0.5536
   0.500   1.4081   0.04589   0.04027  -0.2038   0.1614   0.5625
   1.000   1.4464   0.04638   0.04049  -0.2007   0.1150   0.5707
   1.500   1.4849   0.04692   0.04086  -0.1977   0.0846   0.5786
   2.000   1.5234   0.04751   0.04130  -0.1947   0.0629   0.5841
   2.500   1.5621   0.04814   0.04187  -0.1918   0.0492   0.5917
   3.000   1.6001   0.04884   0.04250  -0.1888   0.0392   0.5977
   3.500   1.6374   0.04961   0.04322  -0.1858   0.0324   0.6021
   4.000   1.6738   0.05044   0.04405  -0.1826   0.0275   0.6081
   4.500   1.7094   0.05136   0.04497  -0.1794   0.0240   0.6128
   5.000   1.7434   0.05237   0.04599  -0.1760   0.0210   0.6175
   5.500   1.7769   0.05346   0.04708  -0.1726   0.0189   0.6205
   6.000   1.8090   0.05465   0.04831  -0.1690   0.0169   0.6248
   6.500   1.8397   0.05592   0.04961  -0.1653   0.0154   0.6279
   7.000   1.8682   0.05735   0.05109  -0.1614   0.0139   0.6310
   7.500   1.8969   0.05881   0.05260  -0.1576   0.0131   0.6343
   8.000   1.9226   0.06052   0.05434  -0.1535   0.0120   0.6365
   8.500   1.9435   0.06269   0.05660  -0.1490   0.0111   0.6392
   9.000   1.9652   0.06480   0.05880  -0.1447   0.0106   0.6414
   9.500   1.9856   0.06700   0.06106  -0.1403   0.0101   0.6433
  10.000   2.0032   0.06947   0.06361  -0.1358   0.0095   0.6452
  10.500   2.0098   0.07308   0.06735  -0.1305   0.0087   0.6472
  11.000   2.0249   0.07592   0.07030  -0.1262   0.0086   0.6498
  11.500   2.0351   0.07930   0.07379  -0.1218   0.0083   0.6517
  12.000   2.0420   0.08310   0.07771  -0.1175   0.0081   0.6531
  12.500   2.0445   0.08752   0.08226  -0.1133   0.0078   0.6540
  13.000   2.0426   0.09264   0.08753  -0.1096   0.0075   0.6550
  13.500   2.0362   0.09857   0.09361  -0.1065   0.0072   0.6559
  14.000   2.0219   0.10575   0.10098  -0.1042   0.0068   0.6568
  14.500   2.0080   0.11317   0.10860  -0.1032   0.0066   0.6578
  15.000   1.9994   0.12006   0.11566  -0.1030   0.0065   0.6589
  15.500   1.9878   0.12750   0.12327  -0.1039   0.0064   0.6601
  16.000   1.9736   0.13546   0.13142  -0.1058   0.0063   0.6617
  16.500   1.9577   0.14386   0.14001  -0.1088   0.0062   0.6635
  17.000   1.9406   0.15268   0.14901  -0.1129   0.0061   0.6645
  17.500   1.9218   0.16201   0.15854  -0.1181   0.0060   0.6650
  18.000   1.9013   0.17188   0.16860  -0.1246   0.0059   0.6654
  18.500   1.8787   0.18243   0.17935  -0.1323   0.0058   0.6657
  19.000   1.8531   0.19383   0.19095  -0.1414   0.0057   0.6660
  19.500   1.8253   0.20604   0.20336  -0.1520   0.0056   0.6663
  20.000   1.7910   0.22031   0.21786  -0.1651   0.0056   0.6666
  20.500   1.7569   0.23527   0.23305  -0.1796   0.0055   0.6668
  21.000   1.7236   0.25090   0.24889  -0.1951   0.0054   0.6669
  21.500   1.6945   0.26633   0.26452  -0.2107   0.0053   0.6671
  22.000   1.6744   0.27980   0.27813  -0.2244   0.0051   0.6674
  22.500   1.6595   0.29223   0.29068  -0.2372   0.0048   0.6678
  23.000   1.6515   0.30256   0.30114  -0.2480   0.0048   0.6684
  23.500   1.6438   0.31313   0.31183  -0.2589   0.0047   0.6690
  24.000   1.6337   0.32559   0.32442  -0.2718   0.0044   0.6695
  24.500   0.9294   0.37605   0.37526  -0.1868   0.0021   0.6601
  25.000   0.9279   0.38729   0.38651  -0.1887   0.0017   0.6613
