  
       XFOIL         Version 6.99
  
 Calculated polar for: NACA 0012                                       
  
 1 1 Reynolds number fixed          Mach number fixed         
  
 xtrf =   1.000 (top)        1.000 (bottom)  
 Mach =   0.000     Re =     2.332 e 6     Ncrit =   9.000
  
   alpha    CL        CD       CDp       CM     Top_Xtr  Bot_Xtr
  ------ -------- --------- --------- -------- -------- --------
 -12.000   0.0811   0.01939   0.01523  -0.2072   0.7598   0.0725
 -11.500   0.1130   0.02051   0.01642  -0.2039   0.7600   0.0851
 -11.000   0.0885   0.02438   0.02031  -0.1920   0.7598   0.0893
 -10.500   0.1172   0.02597   0.02195  -0.1887   0.7603   0.1068
 -10.000   0.1510   0.02722   0.02328  -0.1861   0.7610   0.1287
  -9.500   0.1886   0.02831   0.02442  -0.1839   0.7619   0.1492
  -9.000   0.2302   0.02921   0.02542  -0.1823   0.7631   0.1786
  -8.500   0.2753   0.03002   0.02632  -0.1811   0.7645   0.2079
  -8.000   0.3247   0.03068   0.02708  -0.1805   0.7658   0.2409
  -7.500   0.3717   0.03091   0.02739  -0.1793   0.7638   0.2695
  -7.000   0.4294   0.03072   0.02729  -0.1795   0.7614   0.3003
  -6.500   0.5098   0.02945   0.02611  -0.1828   0.7590   0.3349
  -6.000   0.6379   0.02382   0.02057  -0.1921   0.7462   0.3734
  -5.500   0.9223   0.00958   0.00590  -0.2293   0.7290   0.4243
  -5.000   0.9944   0.00776   0.00406  -0.2321   0.7261   0.4453
  -4.500   1.0619   0.00663   0.00291  -0.2341   0.7276   0.4632
  -4.000   1.0446   0.00870   0.00430  -0.2193   0.5236   0.4745
  -3.500   0.9985   0.01329   0.00871  -0.2016   0.4464   0.4820
  -3.000   0.9679   0.01940   0.01469  -0.1891   0.3863   0.4916
  -2.500   0.9691   0.02212   0.01713  -0.1804   0.3168   0.5020
  -2.000   0.9925   0.02352   0.01830  -0.1750   0.2604   0.5137
  -1.500   1.0228   0.02454   0.01908  -0.1707   0.2030   0.5263
  -1.000   1.0584   0.02533   0.01965  -0.1671   0.1565   0.5371
  -0.500   1.0967   0.02599   0.02013  -0.1639   0.1188   0.5480
  -0.000   1.1368   0.02657   0.02058  -0.1610   0.0912   0.5581
