  
       XFOIL         Version 6.99
  
 Calculated polar for: NACA 2412                                       
  
 1 1 Reynolds number fixed          Mach number fixed         
  
 xtrf =   1.000 (top)        1.000 (bottom)  
 Mach =   0.000     Re =     2.332 e 6     Ncrit =   9.000
  
   alpha    CL        CD       CDp       CM     Top_Xtr  Bot_Xtr
  ------ -------- --------- --------- -------- -------- --------
  -5.000  -0.9564   0.01136   0.00528   0.0402   0.6688   0.0235
  -4.500  -0.9042   0.01086   0.00477   0.0411   0.6631   0.0262
  -4.000  -0.8512   0.01045   0.00436   0.0418   0.6565   0.0288
  -3.500  -0.7984   0.01001   0.00393   0.0426   0.6487   0.0334
  -3.000  -0.7451   0.00960   0.00354   0.0434   0.6402   0.0389
  -2.500  -0.6915   0.00922   0.00320   0.0440   0.6307   0.0462
  -2.000  -0.6377   0.00888   0.00287   0.0446   0.6190   0.0551
  -1.500  -0.5839   0.00853   0.00257   0.0453   0.6075   0.0692
  -1.000  -0.5300   0.00820   0.00231   0.0458   0.5944   0.0867
  -0.500  -0.4761   0.00788   0.00206   0.0464   0.5799   0.1108
   0.000  -0.4223   0.00756   0.00184   0.0469   0.5644   0.1430
   0.500  -0.3683   0.00726   0.00165   0.0475   0.5481   0.1829
   1.000  -0.3146   0.00694   0.00147   0.0480   0.5315   0.2343
   1.500  -0.2609   0.00663   0.00133   0.0485   0.5149   0.2962
   2.000  -0.2079   0.00624   0.00118   0.0491   0.4984   0.3824
   2.500  -0.1611   0.00523   0.00088   0.0506   0.4825   0.6099
   3.000  -0.1077   0.00485   0.00085   0.0512   0.4668   0.7457
   3.500  -0.0494   0.00494   0.00090   0.0509   0.4506   0.7546
   4.000   0.0091   0.00507   0.00097   0.0506   0.4336   0.7606
   4.500   0.0676   0.00523   0.00105   0.0502   0.4150   0.7639
   5.000   0.1257   0.00533   0.00111   0.0498   0.3952   0.7697
   5.500   0.1837   0.00550   0.00121   0.0494   0.3700   0.7731
   6.000   0.2416   0.00571   0.00134   0.0490   0.3415   0.7754
   6.500   0.2991   0.00600   0.00152   0.0487   0.3079   0.7786
   7.000   0.3564   0.00630   0.00169   0.0482   0.2716   0.7791
   7.500   0.4133   0.00664   0.00187   0.0478   0.2322   0.7783
   8.000   0.4695   0.00706   0.00211   0.0474   0.1894   0.7775
   8.500   0.5255   0.00750   0.00239   0.0470   0.1506   0.7767
   9.000   0.5808   0.00801   0.00273   0.0467   0.1151   0.7759
  10.000   0.6910   0.00899   0.00349   0.0461   0.0686   0.7745
  10.500   0.7456   0.00949   0.00391   0.0459   0.0538   0.7738
  11.000   0.8001   0.00997   0.00435   0.0456   0.0443   0.7731
  11.500   0.8540   0.01050   0.00484   0.0454   0.0368   0.7724
  12.000   0.9076   0.01103   0.00536   0.0452   0.0315   0.7717
  12.500   0.9604   0.01161   0.00593   0.0450   0.0273   0.7710
  13.000   1.0122   0.01228   0.00658   0.0450   0.0235   0.7703
  13.500   1.0642   0.01286   0.00719   0.0449   0.0217   0.7696
  14.000   1.1142   0.01362   0.00797   0.0450   0.0194   0.7689
  14.500   1.1643   0.01431   0.00869   0.0450   0.0180   0.7682
  15.000   1.2112   0.01527   0.00968   0.0453   0.0161   0.7676
