  
       XFOIL         Version 6.99
  
 Calculated polar for: NACA 0012                                       
  
 1 1 Reynolds number fixed          Mach number fixed         
  
 xtrf =   1.000 (top)        1.000 (bottom)  
 Mach =   0.000     Re =     1.521 e 6     Ncrit =   9.000
  
   alpha    CL        CD       CDp       CM     Top_Xtr  Bot_Xtr
  ------ -------- --------- --------- -------- -------- --------
 -12.000  -0.8155   0.01242   0.00677  -0.0759   0.8138   0.0243
 -11.500  -0.7622   0.01178   0.00610  -0.0761   0.8133   0.0267
 -11.000  -0.7084   0.01116   0.00545  -0.0762   0.8130   0.0298
 -10.500  -0.6536   0.01067   0.00493  -0.0765   0.8127   0.0332
 -10.000  -0.5987   0.01015   0.00441  -0.0768   0.8126   0.0380
  -9.500  -0.5433   0.00966   0.00394  -0.0771   0.8125   0.0446
  -9.000  -0.4874   0.00922   0.00352  -0.0774   0.8125   0.0529
  -8.500  -0.4314   0.00876   0.00313  -0.0777   0.8125   0.0664
  -8.000  -0.3749   0.00836   0.00280  -0.0781   0.8126   0.0824
  -7.500  -0.3184   0.00794   0.00250  -0.0785   0.8128   0.1060
  -7.000  -0.2615   0.00756   0.00224  -0.0790   0.8130   0.1358
  -6.500  -0.2044   0.00719   0.00202  -0.0794   0.8131   0.1718
  -6.000  -0.1476   0.00683   0.00180  -0.0797   0.8103   0.2130
  -5.500  -0.0907   0.00655   0.00164  -0.0800   0.8055   0.2562
  -5.000  -0.0331   0.00628   0.00151  -0.0804   0.8030   0.2993
  -4.500   0.0245   0.00600   0.00139  -0.0807   0.8005   0.3427
  -3.500   0.1402   0.00559   0.00122  -0.0814   0.7935   0.4215
  -3.000   0.1980   0.00549   0.00120  -0.0816   0.7881   0.4571
  -2.500   0.2560   0.00532   0.00116  -0.0819   0.7831   0.4908
  -2.000   0.3138   0.00520   0.00112  -0.0820   0.7755   0.5208
  -1.500   0.3714   0.00511   0.00111  -0.0821   0.7645   0.5492
  -1.000   0.4288   0.00504   0.00110  -0.0821   0.7445   0.5733
  -0.500   0.4721   0.00597   0.00138  -0.0795   0.5513   0.5945
  -0.000   0.5218   0.00656   0.00165  -0.0782   0.4570   0.6134
