  
       XFOIL         Version 6.99
  
 Calculated polar for: NACA 2412                                       
  
 1 1 Reynolds number fixed          Mach number fixed         
  
 xtrf =   1.000 (top)        1.000 (bottom)  
 Mach =   0.000     Re =     1.521 e 6     Ncrit =   9.000
  
   alpha    CL        CD       CDp       CM     Top_Xtr  Bot_Xtr
  ------ -------- --------- --------- -------- -------- --------
 -15.000  -1.5663   0.07046   0.06666   0.0054   0.7135   0.0098
 -14.500  -1.6130   0.05714   0.05298   0.0016   0.7126   0.0099
 -14.000  -1.6413   0.04929   0.04485   0.0040   0.7114   0.0101
 -13.500  -1.6531   0.04396   0.03931   0.0079   0.7098   0.0103
 -13.000  -1.6531   0.04001   0.03518   0.0121   0.7078   0.0105
 -12.500  -1.6450   0.03686   0.03186   0.0164   0.7059   0.0108
 -12.000  -1.6317   0.03423   0.02906   0.0206   0.7038   0.0111
 -11.500  -1.6145   0.03188   0.02657   0.0249   0.7014   0.0114
 -11.000  -1.5933   0.02985   0.02439   0.0289   0.6991   0.0117
 -10.500  -1.5678   0.02815   0.02253   0.0328   0.6968   0.0120
 -10.000  -1.5411   0.02645   0.02070   0.0367   0.6941   0.0122
  -9.500  -1.5182   0.02435   0.01845   0.0412   0.6913   0.0130
  -9.000  -1.4845   0.02309   0.01710   0.0445   0.6892   0.0136
  -8.500  -1.4480   0.02196   0.01590   0.0475   0.6860   0.0142
  -8.000  -1.4098   0.02092   0.01476   0.0504   0.6827   0.0148
  -7.500  -1.3713   0.01976   0.01349   0.0533   0.6801   0.0154
  -7.000  -1.3311   0.01863   0.01230   0.0560   0.6772   0.0166
  -6.500  -1.2878   0.01779   0.01142   0.0583   0.6731   0.0175
  -6.000  -1.2432   0.01707   0.01062   0.0605   0.6695   0.0183
  -5.500  -1.1989   0.01611   0.00962   0.0626   0.6662   0.0202
  -5.000  -1.1525   0.01543   0.00892   0.0645   0.6615   0.0216
  -4.500  -1.1060   0.01468   0.00813   0.0665   0.6565   0.0236
  -4.000  -1.0587   0.01406   0.00748   0.0683   0.6515   0.0258
  -3.500  -1.0115   0.01342   0.00685   0.0701   0.6452   0.0288
  -3.000  -0.9648   0.01292   0.00632   0.0721   0.6386   0.0316
  -2.500  -0.9186   0.01235   0.00577   0.0742   0.6314   0.0365
  -2.000  -0.8707   0.01184   0.00527   0.0760   0.6230   0.0425
  -1.500  -0.8220   0.01135   0.00481   0.0777   0.6143   0.0501
  -1.000  -0.7731   0.01090   0.00438   0.0792   0.6039   0.0607
  -0.500  -0.7241   0.01045   0.00399   0.0808   0.5938   0.0751
  -0.000  -0.6756   0.00999   0.00362   0.0825   0.5827   0.0960
   0.500  -0.6272   0.00955   0.00326   0.0841   0.5699   0.1246
   1.000  -0.5788   0.00909   0.00295   0.0857   0.5576   0.1620
   1.500  -0.5309   0.00862   0.00265   0.0874   0.5448   0.2114
   2.000  -0.4835   0.00811   0.00236   0.0892   0.5314   0.2770
   2.500  -0.4382   0.00748   0.00204   0.0913   0.5177   0.3733
   3.000  -0.4099   0.00560   0.00136   0.0964   0.5053   0.7254
   3.500  -0.3517   0.00581   0.00151   0.0962   0.4912   0.7409
   4.000  -0.2932   0.00611   0.00174   0.0960   0.4773   0.7478
   4.500  -0.2352   0.00624   0.00185   0.0959   0.4628   0.7545
   5.000  -0.1766   0.00653   0.00212   0.0956   0.4478   0.7602
   5.500  -0.1180   0.00680   0.00234   0.0953   0.4321   0.7634
   6.000  -0.0598   0.00695   0.00243   0.0949   0.4147   0.7658
   6.500  -0.0022   0.00697   0.00243   0.0946   0.3958   0.7702
   7.000   0.0561   0.00730   0.00276   0.0943   0.3724   0.7756
   7.500   0.1140   0.00742   0.00279   0.0938   0.3457   0.7751
   8.000   0.1717   0.00757   0.00282   0.0931   0.3155   0.7739
   8.500   0.2292   0.00776   0.00290   0.0925   0.2817   0.7728
   9.000   0.2864   0.00803   0.00303   0.0919   0.2439   0.7716
   9.500   0.3430   0.00840   0.00323   0.0913   0.2030   0.7706
  10.000   0.3993   0.00883   0.00349   0.0906   0.1631   0.7695
  10.500   0.4551   0.00935   0.00385   0.0900   0.1256   0.7686
  11.000   0.5106   0.00990   0.00426   0.0894   0.0960   0.7676
  11.500   0.5659   0.01048   0.00475   0.0888   0.0736   0.7668
  12.000   0.6209   0.01106   0.00527   0.0883   0.0586   0.7660
  12.500   0.6754   0.01171   0.00587   0.0877   0.0468   0.7653
  13.000   0.7295   0.01238   0.00653   0.0872   0.0389   0.7647
  13.500   0.7830   0.01293   0.00709   0.0866   0.0338   0.7644
  14.000   0.8360   0.01352   0.00770   0.0861   0.0298   0.7641
  14.500   0.8879   0.01423   0.00845   0.0856   0.0265   0.7637
  15.000   0.9389   0.01503   0.00927   0.0850   0.0238   0.7634
  15.500   0.9893   0.01585   0.01017   0.0845   0.0218   0.7630
  16.000   1.0380   0.01683   0.01119   0.0839   0.0200   0.7626
  16.500   1.0844   0.01806   0.01251   0.0833   0.0185   0.7622
  17.000   1.1307   0.01924   0.01378   0.0826   0.0174   0.7617
  17.500   1.1730   0.02099   0.01561   0.0812   0.0162   0.7613
  18.000   1.2095   0.02375   0.01853   0.0783   0.0153   0.7608
  18.500   1.2315   0.02755   0.02247   0.0746   0.0147   0.7603
  19.000   1.2441   0.03200   0.02705   0.0717   0.0143   0.7597
  19.500   1.2493   0.03707   0.03224   0.0692   0.0138   0.7592
  20.000   1.2454   0.04321   0.03851   0.0664   0.0134   0.7587
  20.500   1.2311   0.05082   0.04626   0.0629   0.0130   0.7582
  21.000   1.2053   0.06044   0.05606   0.0584   0.0127   0.7577
  21.500   1.1767   0.07098   0.06679   0.0533   0.0125   0.7572
  22.000   1.1564   0.08075   0.07673   0.0486   0.0124   0.7568
  22.500   1.1314   0.09154   0.08768   0.0434   0.0123   0.7564
  23.000   1.1024   0.10333   0.09965   0.0376   0.0122   0.7560
  23.500   1.0738   0.11543   0.11191   0.0316   0.0121   0.7557
  24.000   1.0448   0.12799   0.12462   0.0251   0.0119   0.7553
  24.500   1.0209   0.14013   0.13691   0.0186   0.0118   0.7550
  25.000   0.9991   0.15232   0.14923   0.0118   0.0115   0.7547
