  
       XFOIL         Version 6.99
  
 Calculated polar for: NACA 2412                                       
  
 1 1 Reynolds number fixed          Mach number fixed         
  
 xtrf =   1.000 (top)        1.000 (bottom)  
 Mach =   0.000     Re =     2.332 e 6     Ncrit =   9.000
  
   alpha    CL        CD       CDp       CM     Top_Xtr  Bot_Xtr
  ------ -------- --------- --------- -------- -------- --------
  -5.000  -0.8922   0.01085   0.00479   0.0312   0.6746   0.0250
  -4.500  -0.8391   0.01039   0.00435   0.0319   0.6687   0.0280
  -4.000  -0.7858   0.00995   0.00391   0.0326   0.6617   0.0321
  -3.500  -0.7319   0.00954   0.00353   0.0332   0.6543   0.0370
  -3.000  -0.6779   0.00917   0.00317   0.0338   0.6451   0.0434
  -2.500  -0.6237   0.00881   0.00284   0.0343   0.6350   0.0521
  -2.000  -0.5693   0.00847   0.00255   0.0348   0.6237   0.0634
  -1.500  -0.5149   0.00815   0.00227   0.0353   0.6107   0.0793
  -1.000  -0.4604   0.00785   0.00203   0.0357   0.5959   0.1001
  -0.500  -0.4060   0.00754   0.00180   0.0361   0.5804   0.1289
   0.000  -0.3516   0.00724   0.00161   0.0366   0.5641   0.1659
   0.500  -0.2971   0.00695   0.00144   0.0370   0.5470   0.2103
   1.000  -0.2429   0.00664   0.00129   0.0374   0.5294   0.2685
   1.500  -0.1889   0.00632   0.00117   0.0378   0.5122   0.3411
   2.000  -0.1369   0.00579   0.00102   0.0385   0.4950   0.4707
   3.500   0.0271   0.00497   0.00090   0.0394   0.4443   0.7625
   4.000   0.0855   0.00509   0.00095   0.0390   0.4269   0.7673
   4.500   0.1436   0.00518   0.00102   0.0387   0.4076   0.7730
   5.000   0.2017   0.00536   0.00112   0.0383   0.3842   0.7780
   5.500   0.2596   0.00558   0.00124   0.0380   0.3565   0.7809
   6.000   0.3172   0.00583   0.00138   0.0376   0.3243   0.7829
   6.500   0.3741   0.00607   0.00152   0.0373   0.2886   0.7876
   7.000   0.4309   0.00642   0.00171   0.0369   0.2491   0.7872
   7.500   0.4874   0.00682   0.00194   0.0365   0.2075   0.7862
   8.000   0.5432   0.00729   0.00223   0.0362   0.1661   0.7851
   8.500   0.5983   0.00782   0.00258   0.0360   0.1269   0.7841
   9.000   0.6534   0.00833   0.00294   0.0357   0.0970   0.7831
   9.500   0.7081   0.00887   0.00336   0.0355   0.0735   0.7822
  10.000   0.7627   0.00934   0.00376   0.0353   0.0587   0.7818
  10.500   0.8167   0.00987   0.00422   0.0352   0.0465   0.7816
  11.000   0.8706   0.01038   0.00469   0.0351   0.0385   0.7813
  11.500   0.9239   0.01091   0.00521   0.0350   0.0325   0.7811
  12.000   0.9765   0.01148   0.00576   0.0349   0.0280   0.7809
  12.500   1.0290   0.01204   0.00633   0.0349   0.0251   0.7807
  13.000   1.0803   0.01267   0.00698   0.0349   0.0223   0.7805
  13.500   1.1305   0.01337   0.00769   0.0351   0.0200   0.7804
  14.000   1.1801   0.01408   0.00845   0.0353   0.0185   0.7803
  14.500   1.2282   0.01486   0.00925   0.0356   0.0169   0.7802
  15.000   1.2743   0.01578   0.01023   0.0361   0.0155   0.7802
