  
       XFOIL         Version 6.99
  
 Calculated polar for: NACA 2412                                       
  
 1 1 Reynolds number fixed          Mach number fixed         
  
 xtrf =   1.000 (top)        1.000 (bottom)  
 Mach =   0.000     Re =     1.521 e 6     Ncrit =   9.000
  
   alpha    CL        CD       CDp       CM     Top_Xtr  Bot_Xtr
  ------ -------- --------- --------- -------- -------- --------
 -15.000  -0.0638   0.04114   0.03753  -0.2119   0.7626   0.0272
 -14.500  -0.0094   0.04171   0.03803  -0.2137   0.7626   0.0292
 -14.000   0.0476   0.04220   0.03847  -0.2160   0.7627   0.0325
 -13.500   0.0973   0.03814   0.03434  -0.2171   0.7639   0.0350
 -13.000   0.1398   0.03894   0.03511  -0.2166   0.7641   0.0396
 -12.500   0.1787   0.03987   0.03604  -0.2153   0.7643   0.0447
 -12.000   0.2131   0.04090   0.03704  -0.2131   0.7645   0.0493
 -11.500   0.2475   0.04200   0.03815  -0.2109   0.7649   0.0559
 -11.000   0.2824   0.04313   0.03931  -0.2087   0.7654   0.0647
 -10.500   0.3203   0.04424   0.04046  -0.2068   0.7659   0.0757
 -10.000   0.3668   0.04503   0.04127  -0.2060   0.7659   0.0898
  -9.500   0.4144   0.04578   0.04208  -0.2054   0.7657   0.1109
  -9.000   0.4602   0.04661   0.04297  -0.2044   0.7657   0.1337
  -8.500   0.5058   0.04744   0.04387  -0.2034   0.7656   0.1599
  -8.000   0.5518   0.04825   0.04475  -0.2023   0.7655   0.1859
  -7.500   0.6007   0.04896   0.04554  -0.2016   0.7652   0.2174
  -7.000   0.6519   0.04961   0.04627  -0.2012   0.7648   0.2480
  -6.500   0.7095   0.05014   0.04687  -0.2016   0.7643   0.2800
  -6.000   0.7735   0.05077   0.04759  -0.2030   0.7637   0.3148
  -5.500   0.8425   0.05429   0.05121  -0.2049   0.7626   0.3478
  -5.000   0.9762   0.06661   0.06337  -0.2306   0.7626   0.3857
  -4.500   1.0141   0.06648   0.06333  -0.2279   0.7625   0.4105
  -4.000   1.0228   0.06178   0.05869  -0.2203   0.7522   0.4299
  -3.500   1.1058   0.05800   0.05499  -0.2234   0.7412   0.4624
  -3.000   1.1629   0.05621   0.05327  -0.2233   0.7328   0.4853
  -2.500   1.2270   0.05368   0.05002  -0.2245   0.5754   0.5054
  -2.000   1.2533   0.05518   0.05104  -0.2199   0.4870   0.5181
  -1.500   1.2923   0.05581   0.05143  -0.2171   0.4376   0.5314
  -1.000   1.3375   0.05577   0.05110  -0.2152   0.3804   0.5426
  -0.500   1.3790   0.05596   0.05094  -0.2127   0.3142   0.5527
  -0.000   1.4179   0.05625   0.05083  -0.2098   0.2432   0.5618
   0.500   1.4563   0.05654   0.05074  -0.2068   0.1764   0.5694
   1.000   1.4957   0.05675   0.05064  -0.2039   0.1238   0.5769
   1.500   1.5346   0.05707   0.05070  -0.2009   0.0871   0.5830
   2.000   1.5717   0.05768   0.05118  -0.1978   0.0640   0.5892
   2.500   1.6083   0.05838   0.05181  -0.1946   0.0498   0.5947
   3.000   1.6442   0.05917   0.05254  -0.1913   0.0400   0.6000
   3.500   1.6792   0.06002   0.05337  -0.1880   0.0331   0.6046
   4.000   1.7129   0.06097   0.05432  -0.1845   0.0283   0.6084
   4.500   1.7448   0.06205   0.05540  -0.1808   0.0242   0.6122
   5.000   1.7766   0.06320   0.05659  -0.1772   0.0218   0.6165
   5.500   1.8053   0.06462   0.05804  -0.1732   0.0195   0.6200
   6.000   1.8325   0.06618   0.05968  -0.1691   0.0179   0.6229
   6.500   1.8558   0.06799   0.06155  -0.1646   0.0161   0.6248
   7.000   1.8817   0.06966   0.06330  -0.1605   0.0152   0.6268
   7.500   1.9043   0.07159   0.06530  -0.1562   0.0141   0.6292
   8.000   1.9219   0.07400   0.06780  -0.1514   0.0129   0.6320
   8.500   1.9400   0.07652   0.07043  -0.1469   0.0124   0.6356
   9.000   1.9558   0.07921   0.07323  -0.1423   0.0118   0.6379
   9.500   1.9693   0.08209   0.07621  -0.1377   0.0111   0.6391
  10.000   1.9691   0.08649   0.08076  -0.1323   0.0103   0.6400
  10.500   1.9796   0.08989   0.08431  -0.1281   0.0101   0.6410
  11.000   1.9841   0.09407   0.08864  -0.1239   0.0097   0.6422
  11.500   1.9847   0.09885   0.09358  -0.1201   0.0094   0.6437
  12.000   1.9825   0.10417   0.09907  -0.1169   0.0091   0.6456
  12.500   1.9775   0.11010   0.10515  -0.1145   0.0087   0.6477
  13.000   1.9675   0.11696   0.11219  -0.1131   0.0084   0.6502
  13.500   1.9484   0.12538   0.12083  -0.1131   0.0081   0.6523
  14.000   1.9302   0.13381   0.12951  -0.1144   0.0079   0.6529
  14.500   1.9200   0.14123   0.13712  -0.1162   0.0078   0.6536
  15.000   1.9079   0.14913   0.14523  -0.1191   0.0077   0.6543
  15.500   1.8935   0.15761   0.15391  -0.1231   0.0075   0.6552
  16.000   1.8772   0.16666   0.16317  -0.1284   0.0074   0.6560
  16.500   1.8596   0.17618   0.17290  -0.1347   0.0073   0.6569
  17.000   1.8402   0.18628   0.18321  -0.1422   0.0071   0.6577
  17.500   1.8191   0.19697   0.19411  -0.1509   0.0070   0.6586
  18.000   1.7979   0.20807   0.20541  -0.1605   0.0069   0.6594
  18.500   1.7754   0.21984   0.21738  -0.1712   0.0068   0.6602
  19.000   1.7542   0.23174   0.22948  -0.1826   0.0067   0.6612
  19.500   1.7348   0.24355   0.24145  -0.1941   0.0066   0.6621
  20.000   1.7146   0.25608   0.25415  -0.2067   0.0064   0.6630
  20.500   1.6988   0.26775   0.26595  -0.2187   0.0062   0.6646
  21.000   1.6831   0.27977   0.27813  -0.2312   0.0059   0.6652
  21.500   1.6721   0.29091   0.28942  -0.2428   0.0058   0.6656
  22.000   1.6520   0.30661   0.30535  -0.2591   0.0057   0.6657
  23.500   0.9369   0.37563   0.37481  -0.1899   0.0030   0.6544
  24.500   0.9340   0.38884   0.38806  -0.1930   0.0028   0.6567
  25.000   0.9325   0.39809   0.39732  -0.1948   0.0022   0.6579
