  
       XFOIL         Version 6.99
  
 Calculated polar for: NACA 0012                                       
  
 1 1 Reynolds number fixed          Mach number fixed         
  
 xtrf =   1.000 (top)        1.000 (bottom)  
 Mach =   0.000     Re =     1.521 e 6     Ncrit =   9.000
  
   alpha    CL        CD       CDp       CM     Top_Xtr  Bot_Xtr
  ------ -------- --------- --------- -------- -------- --------
 -12.000  -0.3194   0.01116   0.00565  -0.1497   0.7623   0.0423
 -11.500  -0.2628   0.01080   0.00532  -0.1505   0.7632   0.0495
 -11.000  -0.2061   0.01047   0.00503  -0.1513   0.7642   0.0600
 -10.500  -0.1491   0.01018   0.00480  -0.1521   0.7652   0.0733
 -10.000  -0.0921   0.00991   0.00461  -0.1528   0.7662   0.0920
  -9.500  -0.0350   0.00969   0.00448  -0.1535   0.7672   0.1153
  -9.000   0.0220   0.00952   0.00441  -0.1542   0.7682   0.1447
  -8.500   0.0788   0.00941   0.00443  -0.1548   0.7690   0.1792
  -8.000   0.1354   0.00940   0.00456  -0.1553   0.7696   0.2158
  -7.000   0.2558   0.00836   0.00375  -0.1573   0.7744   0.2912
  -6.500   0.3143   0.00814   0.00363  -0.1579   0.7742   0.3258
  -6.000   0.3698   0.00841   0.00396  -0.1579   0.7698   0.3588
  -5.500   0.4303   0.00782   0.00344  -0.1586   0.7684   0.3902
  -5.000   0.4895   0.00744   0.00314  -0.1591   0.7660   0.4184
  -4.500   0.5485   0.00712   0.00288  -0.1595   0.7626   0.4452
  -4.000   0.6078   0.00679   0.00257  -0.1599   0.7580   0.4690
  -3.500   0.6655   0.00669   0.00253  -0.1600   0.7530   0.4913
  -3.000   0.7236   0.00628   0.00219  -0.1601   0.7464   0.5116
  -2.500   0.7810   0.00603   0.00198  -0.1601   0.7380   0.5299
  -2.000   0.8175   0.00674   0.00224  -0.1559   0.5798   0.5453
  -1.500   0.8392   0.00821   0.00314  -0.1491   0.4341   0.5586
  -1.000   0.8649   0.00919   0.00379  -0.1431   0.3510   0.5712
  -0.500   0.8860   0.01017   0.00454  -0.1362   0.2865   0.5835
  -0.000   0.9164   0.01122   0.00537  -0.1315   0.2277   0.5945
