  
       XFOIL         Version 6.99
  
 Calculated polar for: NACA 2412                                       
  
 1 1 Reynolds number fixed          Mach number fixed         
  
 xtrf =   1.000 (top)        1.000 (bottom)  
 Mach =   0.000     Re =     1.521 e 6     Ncrit =   9.000
  
   alpha    CL        CD       CDp       CM     Top_Xtr  Bot_Xtr
  ------ -------- --------- --------- -------- -------- --------
  -5.000   0.5807   0.00765   0.00305  -0.1890   0.7749   0.2881
  -4.500   0.6395   0.00735   0.00288  -0.1896   0.7740   0.3311
  -4.000   0.6980   0.00708   0.00274  -0.1901   0.7723   0.3754
  -3.500   0.7562   0.00682   0.00262  -0.1904   0.7697   0.4234
  -3.000   0.8146   0.00655   0.00247  -0.1908   0.7659   0.4733
  -2.500   0.8728   0.00637   0.00235  -0.1911   0.7612   0.5139
  -2.000   0.9297   0.00620   0.00229  -0.1911   0.7561   0.5449
  -1.500   0.9863   0.00595   0.00210  -0.1909   0.7473   0.5692
  -1.000   1.0424   0.00581   0.00205  -0.1907   0.7228   0.5883
  -0.500   1.0472   0.00772   0.00310  -0.1802   0.5289   0.6016
   0.000   1.0756   0.00858   0.00374  -0.1746   0.4702   0.6140
   0.500   1.1001   0.00941   0.00440  -0.1682   0.4284   0.6251
   1.000   1.1306   0.01035   0.00521  -0.1633   0.3857   0.6351
   1.500   1.1584   0.01154   0.00619  -0.1582   0.3357   0.6434
   2.000   1.1865   0.01285   0.00725  -0.1534   0.2818   0.6508
   2.500   1.2163   0.01415   0.00828  -0.1490   0.2265   0.6574
   3.000   1.2481   0.01542   0.00928  -0.1449   0.1731   0.6626
   3.500   1.2820   0.01663   0.01024  -0.1413   0.1290   0.6685
   4.000   1.3174   0.01777   0.01119  -0.1379   0.0944   0.6729
   4.500   1.3541   0.01887   0.01215  -0.1348   0.0709   0.6770
   5.000   1.3917   0.01989   0.01309  -0.1319   0.0562   0.6811
   5.500   1.4290   0.02094   0.01407  -0.1290   0.0450   0.6838
   6.000   1.4655   0.02203   0.01514  -0.1261   0.0370   0.6873
   6.500   1.5016   0.02314   0.01623  -0.1231   0.0321   0.6907
   7.000   1.5377   0.02423   0.01737  -0.1202   0.0282   0.6936
   7.500   1.5711   0.02551   0.01866  -0.1170   0.0249   0.6969
   8.000   1.6034   0.02683   0.02001  -0.1137   0.0223   0.6998
   8.500   1.6350   0.02822   0.02147  -0.1104   0.0205   0.7027
   9.000   1.6642   0.02977   0.02306  -0.1070   0.0187   0.7055
   9.500   1.6915   0.03146   0.02484  -0.1034   0.0172   0.7083
  10.000   1.7184   0.03321   0.02669  -0.0998   0.0162   0.7108
  10.500   1.7418   0.03525   0.02880  -0.0960   0.0151   0.7134
  11.000   1.7606   0.03768   0.03136  -0.0919   0.0142   0.7157
  11.500   1.7823   0.03993   0.03373  -0.0883   0.0136   0.7181
  12.000   1.8007   0.04251   0.03642  -0.0845   0.0129   0.7205
  12.500   1.8133   0.04565   0.03967  -0.0805   0.0122   0.7230
  13.000   1.8184   0.04964   0.04382  -0.0762   0.0115   0.7253
  13.500   1.8301   0.05315   0.04748  -0.0729   0.0112   0.7281
  14.000   1.8367   0.05731   0.05180  -0.0697   0.0109   0.7310
  15.000   1.8364   0.06814   0.06300  -0.0649   0.0102   0.7402
