  
       XFOIL         Version 6.99
  
 Calculated polar for: NACA 2412                                       
  
 1 1 Reynolds number fixed          Mach number fixed         
  
 xtrf =   1.000 (top)        1.000 (bottom)  
 Mach =   0.000     Re =     1.521 e 6     Ncrit =   9.000
  
   alpha    CL        CD       CDp       CM     Top_Xtr  Bot_Xtr
  ------ -------- --------- --------- -------- -------- --------
  -5.000  -1.0622   0.01392   0.00739   0.0539   0.6707   0.0236
  -4.500  -1.0128   0.01328   0.00676   0.0553   0.6654   0.0259
  -4.000  -0.9629   0.01268   0.00613   0.0566   0.6602   0.0289
  -3.500  -0.9121   0.01219   0.00563   0.0578   0.6540   0.0318
  -3.000  -0.8616   0.01162   0.00508   0.0591   0.6470   0.0368
  -2.500  -0.8106   0.01112   0.00461   0.0602   0.6393   0.0431
  -2.000  -0.7592   0.01066   0.00416   0.0613   0.6303   0.0510
  -1.500  -0.7076   0.01023   0.00377   0.0624   0.6209   0.0616
  -1.000  -0.6562   0.00979   0.00339   0.0635   0.6101   0.0779
   0.000  -0.5530   0.00896   0.00275   0.0655   0.5860   0.1281
   0.500  -0.5021   0.00853   0.00246   0.0666   0.5727   0.1685
   1.000  -0.4511   0.00812   0.00220   0.0677   0.5585   0.2193
   1.500  -0.4007   0.00767   0.00196   0.0689   0.5435   0.2854
   2.000  -0.3514   0.00712   0.00172   0.0702   0.5288   0.3798
   2.500  -0.3172   0.00540   0.00118   0.0741   0.5152   0.7293
   3.000  -0.2590   0.00557   0.00127   0.0740   0.5000   0.7475
   3.500  -0.2012   0.00569   0.00137   0.0739   0.4848   0.7568
   4.000  -0.1429   0.00590   0.00151   0.0737   0.4695   0.7629
   4.500  -0.0848   0.00603   0.00158   0.0734   0.4536   0.7678
   5.000  -0.0267   0.00617   0.00170   0.0731   0.4371   0.7722
   5.500   0.0316   0.00633   0.00183   0.0728   0.4193   0.7752
   6.000   0.0898   0.00653   0.00198   0.0724   0.3987   0.7781
   6.500   0.1480   0.00688   0.00226   0.0721   0.3739   0.7814
   7.000   0.2059   0.00706   0.00235   0.0716   0.3451   0.7814
   7.500   0.2635   0.00722   0.00240   0.0710   0.3139   0.7808
   8.000   0.3206   0.00748   0.00252   0.0705   0.2766   0.7800
   8.500   0.3774   0.00778   0.00269   0.0700   0.2381   0.7792
   9.000   0.4336   0.00819   0.00293   0.0695   0.1954   0.7784
   9.500   0.4893   0.00866   0.00324   0.0690   0.1544   0.7775
  10.000   0.5445   0.00919   0.00361   0.0685   0.1183   0.7766
  10.500   0.5993   0.00973   0.00402   0.0681   0.0898   0.7757
  11.000   0.6538   0.01029   0.00448   0.0677   0.0689   0.7749
  11.500   0.7082   0.01084   0.00497   0.0673   0.0550   0.7741
  12.000   0.7619   0.01145   0.00551   0.0670   0.0443   0.7733
  12.500   0.8152   0.01206   0.00611   0.0666   0.0371   0.7725
  13.000   0.8682   0.01268   0.00673   0.0663   0.0325   0.7717
  13.500   0.9205   0.01334   0.00742   0.0660   0.0286   0.7710
  14.000   0.9713   0.01414   0.00825   0.0658   0.0254   0.7703
  14.500   1.0217   0.01492   0.00906   0.0656   0.0231   0.7695
  15.000   1.0702   0.01588   0.01008   0.0655   0.0210   0.7688
