  
       XFOIL         Version 6.99
  
 Calculated polar for: NACA 2412                                       
  
 1 1 Reynolds number fixed          Mach number fixed         
  
 xtrf =   1.000 (top)        1.000 (bottom)  
 Mach =   0.000     Re =     2.332 e 6     Ncrit =   9.000
  
   alpha    CL        CD       CDp       CM     Top_Xtr  Bot_Xtr
  ------ -------- --------- --------- -------- -------- --------
 -15.000  -1.7475   0.04312   0.03869  -0.0008   0.7065   0.0085
 -14.500  -1.7456   0.03939   0.03481   0.0031   0.7050   0.0087
 -14.000  -1.7380   0.03625   0.03152   0.0071   0.7034   0.0089
 -13.500  -1.7266   0.03351   0.02864   0.0113   0.7021   0.0091
 -13.000  -1.7109   0.03114   0.02614   0.0154   0.7004   0.0093
 -12.500  -1.6910   0.02911   0.02398   0.0195   0.6984   0.0095
 -12.000  -1.6674   0.02738   0.02212   0.0234   0.6967   0.0096
 -11.500  -1.6417   0.02577   0.02039   0.0273   0.6951   0.0098
 -11.000  -1.6204   0.02370   0.01817   0.0320   0.6930   0.0104
 -10.500  -1.5901   0.02230   0.01668   0.0356   0.6906   0.0109
 -10.000  -1.5562   0.02113   0.01544   0.0390   0.6886   0.0113
  -9.500  -1.5197   0.02011   0.01433   0.0421   0.6868   0.0117
  -9.000  -1.4812   0.01917   0.01334   0.0450   0.6842   0.0121
  -8.500  -1.4415   0.01826   0.01235   0.0478   0.6812   0.0125
  -8.000  -1.4014   0.01719   0.01123   0.0506   0.6784   0.0135
  -7.500  -1.3587   0.01640   0.01040   0.0530   0.6754   0.0143
  -7.000  -1.3149   0.01572   0.00967   0.0554   0.6718   0.0149
  -6.500  -1.2719   0.01501   0.00891   0.0580   0.6679   0.0157
  -6.000  -1.2267   0.01430   0.00818   0.0601   0.6637   0.0171
  -5.500  -1.1788   0.01375   0.00760   0.0618   0.6597   0.0182
  -5.000  -1.1306   0.01311   0.00695   0.0635   0.6542   0.0200
  -4.500  -1.0815   0.01258   0.00640   0.0650   0.6482   0.0218
  -4.000  -1.0320   0.01205   0.00586   0.0664   0.6424   0.0239
  -3.500  -0.9818   0.01159   0.00539   0.0677   0.6350   0.0264
  -3.000  -0.9316   0.01110   0.00492   0.0691   0.6277   0.0303
  -2.500  -0.8807   0.01067   0.00448   0.0703   0.6184   0.0345
  -2.000  -0.8296   0.01026   0.00410   0.0715   0.6096   0.0402
  -1.500  -0.7784   0.00987   0.00372   0.0726   0.5985   0.0476
  -1.000  -0.7271   0.00948   0.00338   0.0738   0.5877   0.0582
  -0.500  -0.6755   0.00912   0.00307   0.0748   0.5758   0.0714
  -0.000  -0.6240   0.00876   0.00277   0.0759   0.5627   0.0910
   0.500  -0.5725   0.00841   0.00250   0.0770   0.5482   0.1162
   1.000  -0.5212   0.00804   0.00225   0.0780   0.5347   0.1508
   1.500  -0.4697   0.00769   0.00202   0.0790   0.5209   0.1927
   2.000  -0.4188   0.00729   0.00181   0.0801   0.5068   0.2498
   2.500  -0.3681   0.00687   0.00161   0.0812   0.4925   0.3233
   3.000  -0.3208   0.00617   0.00135   0.0828   0.4783   0.4599
   3.500  -0.2779   0.00499   0.00099   0.0852   0.4642   0.7310
   4.000  -0.2193   0.00511   0.00106   0.0849   0.4504   0.7385
   4.500  -0.1605   0.00529   0.00121   0.0845   0.4356   0.7436
   5.000  -0.1017   0.00555   0.00140   0.0841   0.4193   0.7476
   5.500  -0.0433   0.00567   0.00147   0.0837   0.4010   0.7508
   6.000   0.0149   0.00578   0.00152   0.0833   0.3791   0.7539
   6.500   0.0732   0.00598   0.00168   0.0828   0.3556   0.7570
   7.000   0.1313   0.00631   0.00194   0.0824   0.3270   0.7613
   7.500   0.1893   0.00661   0.00214   0.0819   0.2951   0.7627
   8.000   0.2468   0.00682   0.00223   0.0813   0.2610   0.7621
   8.500   0.3040   0.00710   0.00237   0.0808   0.2228   0.7613
   9.000   0.3608   0.00746   0.00257   0.0802   0.1830   0.7606
   9.500   0.4172   0.00787   0.00282   0.0796   0.1451   0.7599
  10.000   0.4732   0.00832   0.00312   0.0791   0.1121   0.7592
  10.500   0.5290   0.00877   0.00345   0.0786   0.0858   0.7585
  11.000   0.5846   0.00921   0.00380   0.0781   0.0674   0.7578
  11.500   0.6399   0.00970   0.00421   0.0776   0.0530   0.7572
  12.000   0.6950   0.01016   0.00463   0.0770   0.0436   0.7565
  12.500   0.7497   0.01064   0.00509   0.0765   0.0367   0.7559
  13.000   0.8039   0.01118   0.00559   0.0761   0.0312   0.7553
  13.500   0.8574   0.01177   0.00618   0.0756   0.0267   0.7547
  14.000   0.9110   0.01231   0.00673   0.0751   0.0244   0.7541
  14.500   0.9632   0.01298   0.00742   0.0747   0.0217   0.7535
  15.000   1.0149   0.01366   0.00812   0.0743   0.0197   0.7530
  15.500   1.0654   0.01447   0.00897   0.0740   0.0180   0.7524
  16.000   1.1154   0.01525   0.00979   0.0736   0.0168   0.7519
  16.500   1.1621   0.01637   0.01096   0.0734   0.0152   0.7514
  17.000   1.2096   0.01729   0.01195   0.0731   0.0145   0.7509
  17.500   1.2546   0.01840   0.01312   0.0727   0.0137   0.7505
  18.000   1.2953   0.01993   0.01472   0.0723   0.0128   0.7500
  18.500   1.3311   0.02218   0.01710   0.0710   0.0120   0.7496
  19.000   1.3556   0.02567   0.02073   0.0677   0.0118   0.7491
  19.500   1.3699   0.02998   0.02516   0.0648   0.0114   0.7487
  20.000   1.3770   0.03471   0.03000   0.0626   0.0111   0.7484
  20.500   1.3763   0.04030   0.03572   0.0603   0.0108   0.7483
  21.000   1.3681   0.04684   0.04239   0.0576   0.0106   0.7482
  21.500   1.3525   0.05469   0.05039   0.0542   0.0103   0.7480
  22.000   1.3282   0.06413   0.05999   0.0499   0.0100   0.7478
  22.500   1.2927   0.07562   0.07168   0.0445   0.0098   0.7477
  23.000   1.2490   0.08887   0.08514   0.0382   0.0097   0.7475
  23.500   1.2033   0.10299   0.09946   0.0314   0.0096   0.7474
  24.000   1.1591   0.11751   0.11417   0.0242   0.0096   0.7472
  24.500   1.1188   0.13196   0.12880   0.0167   0.0096   0.7471
  25.000   1.0811   0.14661   0.14361   0.0088   0.0095   0.7469
