  
       XFOIL         Version 6.99
  
 Calculated polar for: NACA 2412                                       
  
 1 1 Reynolds number fixed          Mach number fixed         
  
 xtrf =   1.000 (top)        1.000 (bottom)  
 Mach =   0.000     Re =     1.521 e 6     Ncrit =   9.000
  
   alpha    CL        CD       CDp       CM     Top_Xtr  Bot_Xtr
  ------ -------- --------- --------- -------- -------- --------
 -15.000  -0.1929   0.02923   0.02513  -0.2204   0.7786   0.0233
 -14.500  -0.1493   0.02987   0.02569  -0.2201   0.7787   0.0244
 -14.000  -0.1026   0.03024   0.02601  -0.2206   0.7787   0.0269
 -13.500  -0.0604   0.03094   0.02664  -0.2197   0.7789   0.0286
 -13.000  -0.0165   0.03152   0.02718  -0.2191   0.7790   0.0316
 -12.500   0.0237   0.03231   0.02793  -0.2176   0.7793   0.0340
 -12.000   0.0657   0.03299   0.02859  -0.2165   0.7796   0.0383
 -11.500   0.1069   0.03375   0.02933  -0.2151   0.7799   0.0427
 -11.000   0.1475   0.03456   0.03012  -0.2135   0.7804   0.0475
 -10.500   0.1893   0.03532   0.03089  -0.2120   0.7809   0.0547
 -10.000   0.2318   0.03608   0.03169  -0.2106   0.7816   0.0639
  -9.500   0.2751   0.03684   0.03248  -0.2092   0.7823   0.0751
  -9.000   0.3234   0.03738   0.03307  -0.2086   0.7824   0.0925
  -8.500   0.3749   0.03779   0.03354  -0.2083   0.7820   0.1132
  -8.000   0.4242   0.03830   0.03412  -0.2076   0.7818   0.1367
  -7.500   0.4743   0.03879   0.03469  -0.2070   0.7815   0.1640
  -7.000   0.5244   0.03929   0.03529  -0.2064   0.7812   0.1959
  -6.500   0.5762   0.03972   0.03582  -0.2060   0.7808   0.2293
  -6.000   0.6304   0.04008   0.03627  -0.2059   0.7802   0.2645
  -5.500   0.6895   0.04028   0.03657  -0.2064   0.7794   0.3014
  -5.000   0.7596   0.04013   0.03652  -0.2085   0.7783   0.3405
  -4.500   0.8664   0.03951   0.03604  -0.2159   0.7765   0.3894
  -4.000   1.1298   0.01968   0.01626  -0.2446   0.7512   0.4674
  -3.500   1.0705   0.02724   0.02394  -0.2269   0.7488   0.4770
  -3.000   1.4295   0.00922   0.00550  -0.2787   0.7386   0.5326
  -2.000   1.3212   0.01795   0.01408  -0.2388   0.6029   0.5482
  -1.500   1.1930   0.02975   0.02562  -0.2108   0.5307   0.5496
  -1.000   1.2073   0.03195   0.02749  -0.2042   0.4662   0.5612
   0.500   1.3067   0.03480   0.02960  -0.1928   0.3090   0.5906
   1.000   1.3416   0.03541   0.02981  -0.1891   0.2395   0.5986
   1.500   1.3766   0.03613   0.03022  -0.1855   0.1821   0.6057
   2.000   1.4117   0.03687   0.03066  -0.1819   0.1313   0.6122
   2.500   1.4477   0.03764   0.03120  -0.1785   0.0941   0.6181
   3.000   1.4846   0.03845   0.03188  -0.1753   0.0704   0.6233
   3.500   1.5215   0.03932   0.03266  -0.1721   0.0542   0.6283
   4.000   1.5578   0.04024   0.03351  -0.1689   0.0434   0.6334
   4.500   1.5935   0.04124   0.03449  -0.1657   0.0360   0.6374
   5.000   1.6284   0.04232   0.03556  -0.1625   0.0306   0.6403
   5.500   1.6622   0.04349   0.03674  -0.1591   0.0265   0.6436
   6.000   1.6943   0.04478   0.03803  -0.1555   0.0231   0.6473
   6.500   1.7268   0.04606   0.03937  -0.1522   0.0212   0.6504
   7.000   1.7550   0.04766   0.04100  -0.1482   0.0187   0.6522
   7.500   1.7852   0.04915   0.04257  -0.1447   0.0176   0.6539
   8.000   1.8098   0.05110   0.04457  -0.1406   0.0162   0.6561
   8.500   1.8316   0.05327   0.04683  -0.1362   0.0150   0.6587
   9.000   1.8564   0.05524   0.04889  -0.1324   0.0142   0.6622
   9.500   1.8776   0.05752   0.05125  -0.1282   0.0133   0.6636
  10.000   1.8872   0.06091   0.05475  -0.1230   0.0122   0.6648
  10.500   1.9053   0.06354   0.05752  -0.1190   0.0119   0.6663
  11.000   1.9186   0.06671   0.06081  -0.1147   0.0114   0.6681
  11.500   1.9288   0.07026   0.06449  -0.1105   0.0109   0.6703
  12.000   1.9337   0.07449   0.06884  -0.1062   0.0104   0.6730
  12.500   1.9294   0.07987   0.07439  -0.1019   0.0099   0.6741
  13.000   1.9198   0.08629   0.08102  -0.0983   0.0096   0.6750
  13.500   1.9179   0.09215   0.08707  -0.0960   0.0094   0.6762
  14.000   1.9117   0.09884   0.09395  -0.0946   0.0091   0.6777
  14.500   1.9023   0.10617   0.10147  -0.0941   0.0089   0.6794
  15.000   1.8898   0.11411   0.10961  -0.0946   0.0086   0.6809
  15.500   1.8745   0.12270   0.11839  -0.0962   0.0084   0.6824
  16.000   1.8559   0.13206   0.12795  -0.0992   0.0083   0.6830
  16.500   1.8353   0.14195   0.13805  -0.1034   0.0081   0.6837
  17.000   1.8100   0.15300   0.14931  -0.1093   0.0079   0.6844
  17.500   1.7828   0.16483   0.16138  -0.1166   0.0077   0.6851
  18.000   1.7512   0.17807   0.17485  -0.1261   0.0076   0.6858
  18.500   1.7165   0.19253   0.18956  -0.1374   0.0074   0.6864
  19.000   1.6967   0.20408   0.20130  -0.1467   0.0074   0.6874
  19.500   1.6782   0.21566   0.21307  -0.1566   0.0073   0.6883
  20.000   1.6590   0.22786   0.22545  -0.1673   0.0072   0.6891
  20.500   1.6436   0.23939   0.23715  -0.1778   0.0071   0.6897
  21.000   1.6268   0.25185   0.24979  -0.1894   0.0070   0.6901
  21.500   1.6135   0.26365   0.26174  -0.2006   0.0069   0.6906
  22.000   1.6012   0.27564   0.27388  -0.2120   0.0067   0.6911
  22.500   1.5890   0.28813   0.28651  -0.2241   0.0064   0.6916
  23.000   1.5707   0.30418   0.30273  -0.2393   0.0061   0.6917
  24.000   0.9139   0.35373   0.35268  -0.1734   0.0039   0.6833
  24.500   0.9129   0.36256   0.36152  -0.1756   0.0039   0.6842
  25.000   0.9123   0.37251   0.37150  -0.1778   0.0031   0.6852
