  
       XFOIL         Version 6.99
  
 Calculated polar for: NACA 0012                                       
  
 1 1 Reynolds number fixed          Mach number fixed         
  
 xtrf =   1.000 (top)        1.000 (bottom)  
 Mach =   0.000     Re =     1.521 e 6     Ncrit =   9.000
  
   alpha    CL        CD       CDp       CM     Top_Xtr  Bot_Xtr
  ------ -------- --------- --------- -------- -------- --------
 -12.000   0.1091   0.04665   0.04240  -0.2032   0.7639   0.0914
 -11.500   0.1570   0.04736   0.04318  -0.2029   0.7643   0.1131
 -11.000   0.2042   0.04811   0.04399  -0.2023   0.7647   0.1358
 -10.500   0.2513   0.04888   0.04485  -0.2017   0.7650   0.1652
 -10.000   0.2979   0.04969   0.04574  -0.2008   0.7652   0.1945
  -9.500   0.3440   0.05053   0.04666  -0.1998   0.7656   0.2233
  -9.000   0.3905   0.05141   0.04762  -0.1988   0.7663   0.2531
  -8.500   0.4393   0.05238   0.04867  -0.1981   0.7675   0.2836
  -7.500   0.5299   0.05342   0.04986  -0.1953   0.7656   0.3345
  -7.000   0.5776   0.05388   0.05038  -0.1941   0.7644   0.3575
  -6.500   0.6272   0.05428   0.05084  -0.1931   0.7632   0.3798
  -6.000   0.6806   0.05450   0.05113  -0.1925   0.7619   0.4001
  -5.500   0.7470   0.05414   0.05084  -0.1937   0.7602   0.4208
  -5.000   0.8717   0.05464   0.05142  -0.2027   0.7569   0.4473
  -4.500   0.8919   0.05001   0.04683  -0.1968   0.7414   0.4590
  -3.500   0.9923   0.04735   0.04333  -0.1945   0.5241   0.4879
  -3.000   1.0293   0.04766   0.04295  -0.1914   0.3891   0.4994
  -2.500   1.0760   0.04731   0.04210  -0.1895   0.2912   0.5105
  -2.000   1.1192   0.04738   0.04182  -0.1871   0.2188   0.5217
  -1.500   1.1653   0.04722   0.04135  -0.1851   0.1601   0.5313
  -0.500   1.2514   0.04760   0.04131  -0.1801   0.0862   0.5492
  -0.000   1.2938   0.04791   0.04152  -0.1775   0.0662   0.5578
