  
       XFOIL         Version 6.99
  
 Calculated polar for: NACA 0012                                       
  
 1 1 Reynolds number fixed          Mach number fixed         
  
 xtrf =   1.000 (top)        1.000 (bottom)  
 Mach =   0.000     Re =     2.332 e 6     Ncrit =   9.000
  
   alpha    CL        CD       CDp       CM     Top_Xtr  Bot_Xtr
  ------ -------- --------- --------- -------- -------- --------
 -12.000  -0.8231   0.01115   0.00575  -0.0749   0.7932   0.0218
 -11.500  -0.7685   0.01069   0.00526  -0.0752   0.7931   0.0233
 -11.000  -0.7142   0.01012   0.00469  -0.0754   0.7930   0.0265
 -10.500  -0.6590   0.00965   0.00421  -0.0756   0.7930   0.0299
 -10.000  -0.6033   0.00923   0.00380  -0.0760   0.7930   0.0338
  -9.500  -0.5473   0.00882   0.00341  -0.0763   0.7932   0.0389
  -9.000  -0.4911   0.00842   0.00304  -0.0767   0.7934   0.0468
  -8.500  -0.4346   0.00803   0.00271  -0.0770   0.7936   0.0570
  -8.000  -0.3778   0.00766   0.00242  -0.0774   0.7939   0.0704
  -7.500  -0.3208   0.00730   0.00215  -0.0779   0.7941   0.0887
  -7.000  -0.2636   0.00697   0.00191  -0.0783   0.7942   0.1113
  -6.500  -0.2067   0.00663   0.00168  -0.0786   0.7910   0.1424
  -6.000  -0.1495   0.00632   0.00150  -0.0790   0.7870   0.1788
  -5.500  -0.0919   0.00601   0.00133  -0.0794   0.7855   0.2163
  -5.000  -0.0342   0.00570   0.00118  -0.0798   0.7835   0.2585
  -4.500   0.0238   0.00546   0.00107  -0.0802   0.7810   0.2983
  -4.000   0.0817   0.00523   0.00098  -0.0806   0.7777   0.3401
  -3.500   0.1397   0.00507   0.00092  -0.0809   0.7732   0.3787
  -3.000   0.1980   0.00491   0.00087  -0.0813   0.7687   0.4148
  -2.500   0.2563   0.00475   0.00083  -0.0817   0.7628   0.4493
  -2.000   0.3141   0.00465   0.00081  -0.0819   0.7528   0.4816
  -1.500   0.3720   0.00456   0.00078  -0.0821   0.7302   0.5112
  -1.000   0.4169   0.00555   0.00110  -0.0799   0.5266   0.5362
  -0.500   0.4686   0.00598   0.00129  -0.0790   0.4432   0.5612
  -0.000   0.5206   0.00640   0.00149  -0.0782   0.3720   0.5835
