  
       XFOIL         Version 6.99
  
 Calculated polar for: NACA 2412                                       
  
 1 1 Reynolds number fixed          Mach number fixed         
  
 xtrf =   1.000 (top)        1.000 (bottom)  
 Mach =   0.000     Re =     2.332 e 6     Ncrit =   9.000
  
   alpha    CL        CD       CDp       CM     Top_Xtr  Bot_Xtr
  ------ -------- --------- --------- -------- -------- --------
 -15.000  -1.7305   0.04018   0.03571  -0.0042   0.7120   0.0087
 -14.500  -1.7258   0.03674   0.03211  -0.0005   0.7103   0.0089
 -14.000  -1.7156   0.03387   0.02910   0.0035   0.7088   0.0091
 -13.500  -1.7016   0.03137   0.02647   0.0075   0.7072   0.0093
 -13.000  -1.6836   0.02921   0.02418   0.0116   0.7052   0.0095
 -12.500  -1.6617   0.02738   0.02221   0.0155   0.7035   0.0097
 -12.000  -1.6363   0.02581   0.02053   0.0194   0.7017   0.0098
 -11.500  -1.6130   0.02401   0.01858   0.0237   0.6997   0.0101
 -11.000  -1.5872   0.02231   0.01676   0.0279   0.6974   0.0107
 -10.500  -1.5547   0.02109   0.01546   0.0314   0.6954   0.0111
 -10.000  -1.5191   0.02004   0.01433   0.0346   0.6934   0.0116
  -9.500  -1.4814   0.01908   0.01331   0.0377   0.6908   0.0120
  -9.000  -1.4419   0.01824   0.01240   0.0405   0.6881   0.0123
  -8.500  -1.4042   0.01725   0.01132   0.0438   0.6858   0.0131
  -8.000  -1.3629   0.01641   0.01044   0.0465   0.6832   0.0139
  -7.500  -1.3175   0.01568   0.00968   0.0485   0.6796   0.0147
  -7.000  -1.2706   0.01505   0.00900   0.0503   0.6761   0.0152
  -6.500  -1.2240   0.01426   0.00816   0.0521   0.6726   0.0166
  -6.000  -1.1756   0.01363   0.00753   0.0537   0.6685   0.0178
  -5.500  -1.1259   0.01313   0.00699   0.0551   0.6639   0.0187
  -5.000  -1.0769   0.01247   0.00633   0.0565   0.6587   0.0211
  -4.500  -1.0261   0.01201   0.00585   0.0577   0.6533   0.0225
  -4.000  -0.9757   0.01145   0.00529   0.0590   0.6464   0.0256
  -3.500  -0.9243   0.01100   0.00484   0.0601   0.6397   0.0286
  -3.000  -0.8725   0.01059   0.00442   0.0611   0.6311   0.0319
  -2.500  -0.8208   0.01015   0.00402   0.0622   0.6227   0.0373
  -1.500  -0.7163   0.00939   0.00330   0.0641   0.6017   0.0524
  -1.000  -0.6639   0.00902   0.00298   0.0650   0.5899   0.0656
  -0.500  -0.6115   0.00867   0.00268   0.0659   0.5767   0.0826
  -0.000  -0.5590   0.00833   0.00241   0.0667   0.5627   0.1051
   0.500  -0.5065   0.00798   0.00217   0.0676   0.5489   0.1349
   1.000  -0.4540   0.00764   0.00195   0.0684   0.5344   0.1738
   1.500  -0.4017   0.00730   0.00175   0.0692   0.5195   0.2232
   2.000  -0.3498   0.00691   0.00156   0.0701   0.5045   0.2887
   2.500  -0.2987   0.00647   0.00138   0.0710   0.4897   0.3771
   3.500  -0.2019   0.00496   0.00095   0.0738   0.4598   0.7386
   4.000  -0.1432   0.00511   0.00105   0.0735   0.4452   0.7454
   4.500  -0.0843   0.00531   0.00117   0.0731   0.4293   0.7482
   5.000  -0.0260   0.00540   0.00122   0.0727   0.4125   0.7535
   5.500   0.0323   0.00557   0.00134   0.0723   0.3915   0.7567
   6.000   0.0907   0.00575   0.00147   0.0719   0.3688   0.7592
   6.500   0.1488   0.00601   0.00164   0.0714   0.3412   0.7617
   7.000   0.2069   0.00639   0.00193   0.0710   0.3100   0.7644
   7.500   0.2645   0.00664   0.00206   0.0705   0.2755   0.7644
   8.000   0.3218   0.00689   0.00218   0.0699   0.2388   0.7639
   8.500   0.3784   0.00725   0.00237   0.0694   0.1974   0.7634
   9.000   0.4348   0.00763   0.00260   0.0689   0.1594   0.7629
   9.500   0.4907   0.00809   0.00289   0.0685   0.1229   0.7623
  10.000   0.5463   0.00855   0.00323   0.0680   0.0937   0.7617
  10.500   0.6018   0.00900   0.00358   0.0676   0.0735   0.7611
  11.000   0.6571   0.00946   0.00397   0.0671   0.0579   0.7605
  11.500   0.7120   0.00994   0.00438   0.0667   0.0469   0.7599
  12.000   0.7665   0.01044   0.00484   0.0663   0.0387   0.7592
  12.500   0.8207   0.01095   0.00533   0.0659   0.0330   0.7586
  13.000   0.8744   0.01148   0.00586   0.0655   0.0286   0.7581
  13.500   0.9274   0.01207   0.00645   0.0652   0.0251   0.7575
  14.000   0.9795   0.01273   0.00711   0.0649   0.0222   0.7570
  14.500   1.0314   0.01335   0.00777   0.0646   0.0204   0.7564
  15.000   1.0814   0.01417   0.00861   0.0645   0.0182   0.7559
  15.500   1.1315   0.01490   0.00939   0.0642   0.0171   0.7554
  16.000   1.1797   0.01577   0.01029   0.0641   0.0159   0.7549
  16.500   1.2246   0.01692   0.01151   0.0642   0.0145   0.7543
  17.000   1.2706   0.01786   0.01251   0.0641   0.0139   0.7538
  17.500   1.3129   0.01907   0.01378   0.0641   0.0131   0.7533
  18.000   1.3493   0.02075   0.01554   0.0642   0.0123   0.7527
  18.500   1.3753   0.02330   0.01823   0.0638   0.0117   0.7522
  19.000   1.3955   0.02758   0.02265   0.0596   0.0114   0.7517
  19.500   1.4075   0.03194   0.02712   0.0574   0.0112   0.7511
  20.000   1.4120   0.03693   0.03224   0.0554   0.0109   0.7506
  20.500   1.4086   0.04288   0.03831   0.0532   0.0106   0.7502
  21.000   1.3984   0.04976   0.04533   0.0505   0.0104   0.7497
  21.500   1.3815   0.05793   0.05366   0.0470   0.0101   0.7493
  22.000   1.3577   0.06744   0.06333   0.0428   0.0099   0.7490
  22.500   1.3232   0.07893   0.07501   0.0375   0.0097   0.7486
  23.000   1.2811   0.09204   0.08832   0.0314   0.0096   0.7485
  23.500   1.2331   0.10664   0.10313   0.0244   0.0095   0.7484
  24.000   1.1811   0.12261   0.11931   0.0164   0.0095   0.7483
  24.500   1.1323   0.13886   0.13575   0.0079   0.0094   0.7483
  25.000   1.0933   0.15416   0.15122  -0.0007   0.0093   0.7482
