  
       XFOIL         Version 6.99
  
 Calculated polar for: NACA 2412                                       
  
 1 1 Reynolds number fixed          Mach number fixed         
  
 xtrf =   1.000 (top)        1.000 (bottom)  
 Mach =   0.000     Re =     2.332 e 6     Ncrit =   9.000
  
   alpha    CL        CD       CDp       CM     Top_Xtr  Bot_Xtr
  ------ -------- --------- --------- -------- -------- --------
 -12.000   0.2958   0.05432   0.05061  -0.2396   0.7534   0.0484
 -11.500   0.3325   0.05550   0.05180  -0.2375   0.7540   0.0556
 -11.000   0.3715   0.05664   0.05298  -0.2357   0.7547   0.0647
 -10.500   0.4159   0.05754   0.05391  -0.2346   0.7551   0.0760
 -10.000   0.4633   0.05827   0.05468  -0.2338   0.7552   0.0899
  -9.500   0.5098   0.05904   0.05550  -0.2328   0.7553   0.1075
  -9.000   0.5569   0.05976   0.05630  -0.2319   0.7554   0.1302
  -8.500   0.6038   0.06047   0.05707  -0.2309   0.7555   0.1524
  -8.000   0.6514   0.06113   0.05780  -0.2299   0.7554   0.1805
  -7.500   0.6995   0.06171   0.05846  -0.2289   0.7552   0.2066
  -7.000   0.7502   0.06214   0.05897  -0.2282   0.7546   0.2372
  -6.500   0.8053   0.06234   0.05923  -0.2281   0.7539   0.2644
  -6.000   0.8720   0.06216   0.05915  -0.2295   0.7528   0.2986
  -5.500   0.9649   0.06468   0.06176  -0.2345   0.7509   0.3372
  -5.000   0.9482   0.06335   0.06050  -0.2243   0.7477   0.3497
  -4.500   1.0341   0.05978   0.05698  -0.2280   0.7380   0.3830
  -4.000   1.1152   0.05668   0.05395  -0.2314   0.7335   0.4149
  -3.500   1.1513   0.05752   0.05473  -0.2288   0.6727   0.4365
  -3.000   1.2086   0.05603   0.05234  -0.2288   0.5208   0.4625
  -2.500   1.2429   0.05706   0.05302  -0.2255   0.4500   0.4805
  -2.000   1.2828   0.05768   0.05342  -0.2229   0.4018   0.4965
  -1.500   1.3257   0.05791   0.05337  -0.2208   0.3441   0.5108
  -1.000   1.3739   0.05746   0.05253  -0.2193   0.2723   0.5241
  -0.500   1.4149   0.05766   0.05238  -0.2167   0.2098   0.5336
   0.000   1.4545   0.05795   0.05238  -0.2139   0.1534   0.5443
   0.500   1.4942   0.05823   0.05236  -0.2111   0.1072   0.5515
   1.000   1.5347   0.05852   0.05250  -0.2084   0.0788   0.5604
   1.500   1.5750   0.05883   0.05267  -0.2057   0.0584   0.5675
   2.000   1.6138   0.05933   0.05307  -0.2028   0.0449   0.5737
   2.500   1.6511   0.05997   0.05367  -0.1997   0.0359   0.5802
   3.000   1.6878   0.06068   0.05434  -0.1966   0.0300   0.5857
   3.500   1.7237   0.06145   0.05510  -0.1934   0.0259   0.5901
   4.000   1.7585   0.06229   0.05596  -0.1900   0.0226   0.5958
   4.500   1.7913   0.06328   0.05694  -0.1864   0.0196   0.6003
   5.000   1.8230   0.06441   0.05810  -0.1827   0.0179   0.6046
   5.500   1.8522   0.06572   0.05943  -0.1788   0.0158   0.6077
   6.000   1.8813   0.06706   0.06083  -0.1749   0.0147   0.6121
   6.500   1.9073   0.06858   0.06238  -0.1706   0.0130   0.6154
   7.000   1.9342   0.07006   0.06393  -0.1666   0.0124   0.6184
   7.500   1.9596   0.07169   0.06562  -0.1625   0.0116   0.6214
   8.000   1.9817   0.07360   0.06757  -0.1580   0.0107   0.6241
   8.500   1.9999   0.07590   0.06997  -0.1533   0.0100   0.6267
   9.000   2.0166   0.07842   0.07259  -0.1486   0.0097   0.6290
   9.500   2.0337   0.08082   0.07508  -0.1441   0.0092   0.6308
  10.000   2.0479   0.08351   0.07785  -0.1395   0.0086   0.6328
  10.500   2.0519   0.08737   0.08183  -0.1343   0.0081   0.6346
  11.000   2.0576   0.09112   0.08572  -0.1296   0.0077   0.6366
  11.500   2.0632   0.09504   0.08977  -0.1253   0.0076   0.6387
  12.000   2.0646   0.09955   0.09442  -0.1213   0.0074   0.6407
  12.500   2.0638   0.10449   0.09950  -0.1179   0.0072   0.6425
  13.000   2.0603   0.10993   0.10509  -0.1151   0.0069   0.6437
  13.500   2.0540   0.11590   0.11122  -0.1132   0.0067   0.6446
  14.000   2.0455   0.12231   0.11778  -0.1121   0.0065   0.6453
  14.500   2.0327   0.12944   0.12509  -0.1121   0.0063   0.6461
  15.000   2.0140   0.13758   0.13344  -0.1135   0.0060   0.6467
  15.500   1.9901   0.14685   0.14294  -0.1166   0.0058   0.6474
  16.000   1.9785   0.15437   0.15063  -0.1196   0.0057   0.6483
  16.500   1.9648   0.16240   0.15884  -0.1237   0.0057   0.6493
  17.000   1.9494   0.17089   0.16751  -0.1288   0.0056   0.6503
  17.500   1.9317   0.17998   0.17679  -0.1351   0.0055   0.6515
  18.000   1.9112   0.18975   0.18675  -0.1427   0.0054   0.6527
  18.500   1.8872   0.20053   0.19774  -0.1518   0.0054   0.6540
  19.000   1.8607   0.21224   0.20966  -0.1624   0.0053   0.6553
  19.500   1.8313   0.22507   0.22271  -0.1748   0.0053   0.6560
  20.000   1.7993   0.23913   0.23700  -0.1890   0.0052   0.6564
  20.500   1.7693   0.25336   0.25143  -0.2037   0.0051   0.6566
  21.000   1.7414   0.26787   0.26614  -0.2191   0.0051   0.6568
  21.500   1.7222   0.28037   0.27880  -0.2324   0.0049   0.6571
  22.000   1.7033   0.29353   0.29210  -0.2466   0.0048   0.6573
  22.500   1.6913   0.30484   0.30351  -0.2589   0.0045   0.6576
  23.000   1.6860   0.31375   0.31250  -0.2687   0.0043   0.6580
  23.500   1.6740   0.32629   0.32518  -0.2824   0.0041   0.6582
  25.000   0.9350   0.39661   0.39595  -0.1967   0.0016   0.6478
