  
       XFOIL         Version 6.99
  
 Calculated polar for: NACA 0012                                       
  
 1 1 Reynolds number fixed          Mach number fixed         
  
 xtrf =   1.000 (top)        1.000 (bottom)  
 Mach =   0.000     Re =     2.332 e 6     Ncrit =   9.000
  
   alpha    CL        CD       CDp       CM     Top_Xtr  Bot_Xtr
  ------ -------- --------- --------- -------- -------- --------
 -12.000  -1.5083   0.01787   0.01267   0.0223   0.9999   0.0128
 -11.500  -1.4702   0.01702   0.01177   0.0250   0.9999   0.0134
 -11.000  -1.4298   0.01610   0.01078   0.0274   0.9999   0.0140
 -10.500  -1.3878   0.01518   0.00983   0.0295   0.9999   0.0152
 -10.000  -1.3426   0.01446   0.00908   0.0312   0.9999   0.0161
  -9.500  -1.2964   0.01375   0.00833   0.0328   0.9999   0.0171
  -9.000  -1.2496   0.01303   0.00762   0.0342   0.9999   0.0189
  -8.500  -1.2006   0.01248   0.00704   0.0354   0.9999   0.0200
  -8.000  -1.1525   0.01179   0.00637   0.0368   0.9999   0.0227
  -7.500  -1.1026   0.01126   0.00583   0.0378   0.9999   0.0249
  -7.000  -1.0525   0.01073   0.00533   0.0389   0.9999   0.0281
  -6.500  -1.0023   0.01020   0.00484   0.0400   0.9999   0.0323
  -6.000  -0.9427   0.00987   0.00433   0.0392   0.8788   0.0381
  -5.500  -0.8937   0.00983   0.00389   0.0406   0.7328   0.0451
  -5.000  -0.8408   0.00945   0.00352   0.0412   0.7204   0.0542
  -4.500  -0.7878   0.00905   0.00316   0.0418   0.7123   0.0683
  -4.000  -0.7343   0.00865   0.00284   0.0423   0.7052   0.0861
  -3.500  -0.6809   0.00825   0.00254   0.0428   0.6980   0.1115
  -3.000  -0.6272   0.00777   0.00224   0.0433   0.6903   0.1466
  -2.500  -0.5733   0.00734   0.00197   0.0437   0.6809   0.1877
  -2.000  -0.5194   0.00690   0.00171   0.0441   0.6686   0.2362
  -1.500  -0.4653   0.00649   0.00149   0.0446   0.6525   0.2898
  -1.000  -0.4110   0.00614   0.00130   0.0449   0.6319   0.3459
  -0.000  -0.3021   0.00554   0.00100   0.0456   0.5801   0.4698
