  
       XFOIL         Version 6.99
  
 Calculated polar for: NACA 2412                                       
  
 1 1 Reynolds number fixed          Mach number fixed         
  
 xtrf =   1.000 (top)        1.000 (bottom)  
 Mach =   0.000     Re =     2.332 e 6     Ncrit =   9.000
  
   alpha    CL        CD       CDp       CM     Top_Xtr  Bot_Xtr
  ------ -------- --------- --------- -------- -------- --------
 -15.000  -1.6762   0.03595   0.03147  -0.0126   0.7286   0.0087
 -14.500  -1.6784   0.03206   0.02737  -0.0082   0.7255   0.0090
 -14.000  -1.6680   0.02931   0.02446  -0.0040   0.7231   0.0093
 -13.500  -1.6503   0.02717   0.02220   0.0000   0.7210   0.0096
 -13.000  -1.6282   0.02541   0.02031   0.0040   0.7183   0.0099
 -12.500  -1.6021   0.02393   0.01872   0.0077   0.7155   0.0102
 -12.000  -1.5729   0.02264   0.01733   0.0114   0.7135   0.0105
 -11.500  -1.5409   0.02152   0.01611   0.0149   0.7110   0.0107
 -11.000  -1.5079   0.02046   0.01493   0.0185   0.7083   0.0109
 -10.500  -1.4783   0.01910   0.01344   0.0228   0.7060   0.0116
 -10.000  -1.4379   0.01813   0.01242   0.0253   0.7034   0.0122
  -9.500  -1.3948   0.01731   0.01153   0.0275   0.7006   0.0128
  -9.000  -1.3498   0.01658   0.01073   0.0294   0.6981   0.0132
  -8.500  -1.3039   0.01579   0.00988   0.0312   0.6951   0.0137
  -8.000  -1.2578   0.01492   0.00896   0.0330   0.6921   0.0150
  -7.500  -1.2093   0.01429   0.00829   0.0344   0.6893   0.0159
  -7.000  -1.1594   0.01372   0.00769   0.0357   0.6857   0.0165
  -6.500  -1.1104   0.01296   0.00691   0.0371   0.6820   0.0182
  -6.000  -1.0595   0.01242   0.00635   0.0382   0.6784   0.0196
  -5.500  -1.0083   0.01186   0.00577   0.0392   0.6740   0.0214
  -5.000  -0.9564   0.01136   0.00528   0.0402   0.6688   0.0235
  -4.500  -0.9042   0.01086   0.00477   0.0411   0.6631   0.0262
  -4.000  -0.8512   0.01045   0.00436   0.0418   0.6565   0.0288
  -3.500  -0.7984   0.01001   0.00393   0.0426   0.6487   0.0334
  -3.000  -0.7451   0.00960   0.00354   0.0434   0.6402   0.0389
  -2.500  -0.6915   0.00922   0.00320   0.0440   0.6307   0.0462
  -2.000  -0.6377   0.00888   0.00287   0.0446   0.6190   0.0551
  -1.500  -0.5839   0.00853   0.00257   0.0453   0.6075   0.0692
  -1.000  -0.5300   0.00820   0.00231   0.0458   0.5944   0.0867
  -0.500  -0.4761   0.00788   0.00206   0.0464   0.5799   0.1108
  -0.000  -0.4222   0.00756   0.00184   0.0469   0.5644   0.1428
   0.500  -0.3683   0.00726   0.00165   0.0475   0.5481   0.1827
   1.000  -0.3146   0.00694   0.00147   0.0480   0.5315   0.2343
   1.500  -0.2609   0.00663   0.00133   0.0485   0.5149   0.2961
   2.000  -0.2080   0.00623   0.00118   0.0491   0.4984   0.3846
   2.500  -0.1613   0.00520   0.00088   0.0507   0.4824   0.6146
   3.000  -0.1077   0.00485   0.00085   0.0512   0.4669   0.7457
   3.500  -0.0494   0.00494   0.00090   0.0509   0.4506   0.7546
   4.000   0.0091   0.00507   0.00097   0.0506   0.4336   0.7606
   4.500   0.0676   0.00523   0.00105   0.0502   0.4150   0.7639
   5.000   0.1257   0.00533   0.00111   0.0498   0.3952   0.7698
   5.500   0.1837   0.00550   0.00121   0.0494   0.3700   0.7731
   6.000   0.2416   0.00571   0.00134   0.0490   0.3414   0.7754
   6.500   0.2991   0.00600   0.00152   0.0487   0.3079   0.7786
   7.000   0.3564   0.00630   0.00169   0.0482   0.2716   0.7791
   7.500   0.4133   0.00664   0.00187   0.0478   0.2322   0.7783
   8.000   0.4695   0.00706   0.00211   0.0474   0.1894   0.7775
   8.500   0.5255   0.00750   0.00239   0.0470   0.1506   0.7767
   9.000   0.5808   0.00801   0.00273   0.0467   0.1148   0.7759
  10.000   0.6910   0.00899   0.00349   0.0461   0.0686   0.7745
  10.500   0.7456   0.00949   0.00391   0.0459   0.0538   0.7738
  11.000   0.8001   0.00997   0.00435   0.0456   0.0443   0.7731
  11.500   0.8540   0.01050   0.00484   0.0454   0.0368   0.7724
  12.000   0.9076   0.01103   0.00536   0.0452   0.0314   0.7717
  12.500   0.9604   0.01161   0.00593   0.0450   0.0273   0.7710
  13.000   1.0122   0.01228   0.00658   0.0450   0.0235   0.7703
  13.500   1.0642   0.01286   0.00719   0.0449   0.0217   0.7696
  14.000   1.1142   0.01362   0.00797   0.0450   0.0194   0.7689
  14.500   1.1643   0.01431   0.00869   0.0450   0.0180   0.7682
  15.000   1.2112   0.01527   0.00968   0.0453   0.0161   0.7676
  15.500   1.2590   0.01604   0.01051   0.0455   0.0154   0.7670
  16.000   1.3040   0.01700   0.01151   0.0459   0.0144   0.7665
  16.500   1.3433   0.01837   0.01296   0.0468   0.0131   0.7660
  17.000   1.3840   0.01947   0.01413   0.0475   0.0128   0.7656
  17.500   1.4197   0.02081   0.01556   0.0484   0.0122   0.7653
  18.000   1.4417   0.02270   0.01753   0.0504   0.0117   0.7650
  18.500   1.4604   0.02690   0.02187   0.0472   0.0111   0.7648
  20.000   1.4695   0.04278   0.03818   0.0413   0.0102   0.7646
  20.500   1.4616   0.04939   0.04494   0.0391   0.0100   0.7645
  21.000   1.4474   0.05711   0.05282   0.0361   0.0099   0.7645
  21.500   1.4280   0.06599   0.06187   0.0325   0.0097   0.7645
  22.000   1.4018   0.07623   0.07228   0.0280   0.0096   0.7645
  22.500   1.3688   0.08780   0.08404   0.0228   0.0095   0.7645
  23.000   1.3271   0.10120   0.09764   0.0166   0.0094   0.7645
  23.500   1.2825   0.11557   0.11221   0.0096   0.0093   0.7645
  24.000   1.2311   0.13187   0.12872   0.0013   0.0093   0.7645
  24.500   1.1857   0.14784   0.14488  -0.0075   0.0093   0.7644
  25.000   1.1457   0.16368   0.16089  -0.0167   0.0092   0.7645
