  
       XFOIL         Version 6.99
  
 Calculated polar for: NACA 2412                                       
  
 1 1 Reynolds number fixed          Mach number fixed         
  
 xtrf =   1.000 (top)        1.000 (bottom)  
 Mach =   0.000     Re =     2.332 e 6     Ncrit =   9.000
  
   alpha    CL        CD       CDp       CM     Top_Xtr  Bot_Xtr
  ------ -------- --------- --------- -------- -------- --------
 -15.000  -1.0441   0.01682   0.01244  -0.1041   0.8595   0.0122
 -14.500  -0.9985   0.01534   0.01079  -0.1039   0.8504   0.0130
 -14.000  -0.9487   0.01441   0.00976  -0.1039   0.8420   0.0137
 -13.500  -0.8968   0.01363   0.00891  -0.1040   0.8375   0.0144
 -13.000  -0.8440   0.01297   0.00816  -0.1041   0.8330   0.0149
 -12.500  -0.7918   0.01214   0.00722  -0.1042   0.8287   0.0159
 -12.000  -0.7381   0.01150   0.00654  -0.1043   0.8253   0.0170
 -11.500  -0.6831   0.01098   0.00597  -0.1046   0.8237   0.0180
 -11.000  -0.6284   0.01035   0.00529  -0.1049   0.8220   0.0194
 -10.500  -0.5728   0.00985   0.00477  -0.1052   0.8204   0.0210
 -10.000  -0.5168   0.00940   0.00428  -0.1055   0.8188   0.0226
  -9.500  -0.4605   0.00896   0.00384  -0.1058   0.8173   0.0251
  -9.000  -0.4039   0.00855   0.00342  -0.1062   0.8160   0.0279
  -8.500  -0.3470   0.00824   0.00308  -0.1065   0.8134   0.0305
  -8.000  -0.2902   0.00788   0.00273  -0.1068   0.8080   0.0354
  -7.500  -0.2329   0.00754   0.00241  -0.1072   0.8053   0.0410
  -7.000  -0.1753   0.00723   0.00214  -0.1076   0.8032   0.0484
  -6.500  -0.1175   0.00696   0.00190  -0.1080   0.8009   0.0572
  -6.000  -0.0599   0.00668   0.00167  -0.1084   0.7983   0.0715
  -5.500  -0.0021   0.00644   0.00149  -0.1088   0.7948   0.0884
  -5.000   0.0559   0.00619   0.00133  -0.1093   0.7920   0.1109
  -4.500   0.1141   0.00593   0.00119  -0.1097   0.7895   0.1390
  -4.000   0.1722   0.00569   0.00107  -0.1102   0.7858   0.1721
  -3.500   0.2302   0.00549   0.00097  -0.1106   0.7809   0.2095
  -3.000   0.2882   0.00531   0.00091  -0.1109   0.7752   0.2514
  -2.500   0.3464   0.00511   0.00085  -0.1114   0.7690   0.2980
  -2.000   0.4040   0.00496   0.00081  -0.1116   0.7589   0.3477
  -1.500   0.4614   0.00478   0.00079  -0.1119   0.7428   0.4076
  -1.000   0.5104   0.00518   0.00093  -0.1104   0.6241   0.4789
  -0.500   0.5629   0.00545   0.00111  -0.1098   0.5637   0.5373
  -0.000   0.6165   0.00566   0.00127  -0.1093   0.5193   0.5841
   0.500   0.6704   0.00590   0.00145  -0.1088   0.4809   0.6183
   1.000   0.7243   0.00617   0.00164  -0.1083   0.4459   0.6437
   1.500   0.7778   0.00647   0.00184  -0.1078   0.4115   0.6625
   2.000   0.8307   0.00684   0.00207  -0.1071   0.3728   0.6758
   2.500   0.8819   0.00732   0.00235  -0.1062   0.3269   0.6856
   3.000   0.9319   0.00786   0.00268  -0.1050   0.2769   0.6938
   3.500   0.9807   0.00845   0.00305  -0.1037   0.2249   0.7005
   4.000   1.0284   0.00913   0.00348  -0.1022   0.1743   0.7071
   4.500   1.0756   0.00976   0.00394  -0.1007   0.1308   0.7174
   5.000   1.1229   0.01039   0.00443  -0.0992   0.0972   0.7285
   5.500   1.1701   0.01097   0.00496  -0.0976   0.0730   0.7533
   6.000   1.2142   0.01116   0.00554  -0.0954   0.0568   0.9999
   6.500   1.2609   0.01177   0.00608  -0.0937   0.0456   0.9999
   7.000   1.3066   0.01240   0.00666  -0.0920   0.0379   0.9999
   7.500   1.3507   0.01306   0.00728  -0.0899   0.0319   0.9999
   8.000   1.3913   0.01373   0.00793  -0.0872   0.0276   0.9999
   8.500   1.4299   0.01450   0.00869  -0.0842   0.0239   0.9999
   9.000   1.4692   0.01522   0.00942  -0.0815   0.0218   0.9999
   9.500   1.5058   0.01611   0.01033  -0.0784   0.0195   0.9999
  10.000   1.5421   0.01701   0.01125  -0.0754   0.0181   0.9999
  10.500   1.5749   0.01813   0.01241  -0.0720   0.0163   0.9999
  11.000   1.6091   0.01917   0.01350  -0.0691   0.0154   0.9999
  11.500   1.6394   0.02047   0.01483  -0.0657   0.0142   0.9999
  12.000   1.6669   0.02198   0.01640  -0.0621   0.0133   0.9999
  12.500   1.6955   0.02344   0.01794  -0.0590   0.0127   0.9999
  13.000   1.7205   0.02517   0.01974  -0.0555   0.0121   0.9999
  13.500   1.7411   0.02728   0.02192  -0.0519   0.0113   0.9999
  14.000   1.7573   0.02977   0.02452  -0.0481   0.0107   0.9999
  14.500   1.7762   0.03214   0.02699  -0.0450   0.0105   0.9999
  15.000   1.7912   0.03489   0.02984  -0.0418   0.0101   0.9999
  15.500   1.8034   0.03806   0.03311  -0.0388   0.0097   0.9999
  16.000   1.8103   0.04190   0.03706  -0.0361   0.0093   0.9999
  16.500   1.8104   0.04676   0.04206  -0.0337   0.0089   0.9999
  17.000   1.8000   0.05336   0.04886  -0.0324   0.0085   0.9999
  17.500   1.7985   0.05947   0.05512  -0.0322   0.0084   0.9999
  18.000   1.7913   0.06662   0.06245  -0.0329   0.0083   0.9999
  18.500   1.7767   0.07503   0.07105  -0.0343   0.0082   0.9999
  19.000   1.7549   0.08472   0.08094  -0.0367   0.0081   0.9999
  19.500   1.7257   0.09575   0.09217  -0.0400   0.0080   0.9999
  20.000   1.6913   0.10795   0.10459  -0.0445   0.0079   0.9999
  20.500   1.6536   0.12106   0.11792  -0.0501   0.0078   0.9999
  21.000   1.6146   0.13490   0.13199  -0.0569   0.0077   0.9999
  21.500   1.5718   0.14998   0.14729  -0.0654   0.0077   0.9999
  22.000   1.5304   0.16558   0.16312  -0.0753   0.0076   0.9999
  22.500   1.4901   0.18161   0.17936  -0.0863   0.0075   0.9999
  23.000   1.4539   0.19771   0.19567  -0.0980   0.0075   0.9999
  23.500   1.4222   0.21368   0.21181  -0.1102   0.0074   0.9999
  24.000   1.3962   0.22902   0.22731  -0.1223   0.0072   0.9999
  24.500   1.3796   0.24227   0.24067  -0.1330   0.0070   0.9999
  25.000   1.3682   0.25451   0.25301  -0.1431   0.0067   0.9999
