  
       XFOIL         Version 6.99
  
 Calculated polar for: NACA 2412                                       
  
 1 1 Reynolds number fixed          Mach number fixed         
  
 xtrf =   1.000 (top)        1.000 (bottom)  
 Mach =   0.000     Re =     2.332 e 6     Ncrit =   9.000
  
   alpha    CL        CD       CDp       CM     Top_Xtr  Bot_Xtr
  ------ -------- --------- --------- -------- -------- --------
  -5.000   0.4354   0.00596   0.00149  -0.1667   0.7669   0.2105
  -4.500   0.4939   0.00576   0.00140  -0.1673   0.7649   0.2486
  -4.000   0.5523   0.00561   0.00135  -0.1678   0.7624   0.2891
  -3.500   0.6107   0.00553   0.00137  -0.1683   0.7589   0.3318
  -3.000   0.6690   0.00530   0.00129  -0.1687   0.7569   0.3770
  -2.500   0.7272   0.00509   0.00123  -0.1691   0.7527   0.4285
  -2.000   0.7846   0.00494   0.00119  -0.1693   0.7451   0.4804
  -1.500   0.8422   0.00480   0.00117  -0.1695   0.7308   0.5224
  -1.000   0.8737   0.00614   0.00183  -0.1645   0.5494   0.5496
  -0.500   0.9188   0.00670   0.00219  -0.1623   0.4876   0.5749
   0.000   0.9646   0.00719   0.00252  -0.1602   0.4414   0.5944
   0.500   1.0099   0.00766   0.00287  -0.1580   0.4005   0.6110
   1.000   1.0519   0.00823   0.00327  -0.1551   0.3543   0.6247
   1.500   1.0880   0.00892   0.00374  -0.1511   0.3036   0.6355
   2.000   1.1197   0.00970   0.00431  -0.1463   0.2534   0.6454
   2.500   1.1547   0.01062   0.00499  -0.1423   0.2018   0.6533
   3.000   1.1908   0.01158   0.00571  -0.1387   0.1541   0.6607
   3.500   1.2287   0.01250   0.00644  -0.1354   0.1157   0.6665
   4.000   1.2676   0.01340   0.00718  -0.1324   0.0870   0.6725
   4.500   1.3072   0.01427   0.00793  -0.1296   0.0665   0.6774
   5.000   1.3471   0.01513   0.00871  -0.1269   0.0519   0.6809
   5.500   1.3871   0.01598   0.00950  -0.1243   0.0427   0.6844
   6.000   1.4269   0.01683   0.01032  -0.1217   0.0357   0.6872
   6.500   1.4654   0.01774   0.01121  -0.1189   0.0304   0.6897
   7.000   1.5033   0.01870   0.01216  -0.1161   0.0260   0.6927
   7.500   1.5401   0.01970   0.01316  -0.1132   0.0233   0.6955
   8.000   1.5767   0.02071   0.01421  -0.1104   0.0210   0.6978
   8.500   1.6104   0.02190   0.01541  -0.1072   0.0187   0.7006
   9.000   1.6444   0.02306   0.01662  -0.1042   0.0173   0.7028
   9.500   1.6760   0.02437   0.01797  -0.1009   0.0159   0.7055
  10.000   1.7053   0.02584   0.01951  -0.0975   0.0146   0.7077
  10.500   1.7347   0.02729   0.02103  -0.0941   0.0139   0.7100
  11.000   1.7607   0.02900   0.02280  -0.0905   0.0129   0.7122
  11.500   1.7829   0.03101   0.02490  -0.0865   0.0119   0.7146
  12.000   1.8070   0.03291   0.02689  -0.0830   0.0115   0.7169
  12.500   1.8283   0.03509   0.02915  -0.0794   0.0110   0.7188
  13.500   1.8589   0.04058   0.03484  -0.0716   0.0098   0.7240
  14.000   1.8692   0.04391   0.03831  -0.0677   0.0094   0.7268
  14.500   1.8813   0.04720   0.04174  -0.0643   0.0092   0.7301
