  
       XFOIL         Version 6.99
  
 Calculated polar for: NACA 2412                                       
  
 1 1 Reynolds number fixed          Mach number fixed         
  
 xtrf =   1.000 (top)        1.000 (bottom)  
 Mach =   0.000     Re =     2.332 e 6     Ncrit =   9.000
  
   alpha    CL        CD       CDp       CM     Top_Xtr  Bot_Xtr
  ------ -------- --------- --------- -------- -------- --------
  -5.000   0.2836   0.00599   0.00134  -0.1438   0.7745   0.1677
  -4.500   0.3421   0.00576   0.00124  -0.1443   0.7732   0.2027
  -4.000   0.4006   0.00555   0.00115  -0.1448   0.7711   0.2419
  -3.500   0.4591   0.00535   0.00108  -0.1453   0.7681   0.2848
  -3.000   0.5173   0.00518   0.00103  -0.1458   0.7642   0.3286
  -2.500   0.5753   0.00506   0.00102  -0.1461   0.7587   0.3768
  -2.000   0.6335   0.00484   0.00099  -0.1465   0.7525   0.4343
  -1.500   0.6910   0.00470   0.00098  -0.1467   0.7408   0.4941
  -1.000   0.7332   0.00553   0.00133  -0.1439   0.5917   0.5339
  -0.500   0.7817   0.00602   0.00163  -0.1424   0.5248   0.5678
   0.000   0.8316   0.00642   0.00189  -0.1411   0.4765   0.5944
   0.500   0.8820   0.00679   0.00215  -0.1400   0.4360   0.6156
   1.000   0.9314   0.00720   0.00243  -0.1386   0.3965   0.6325
   1.500   0.9790   0.00770   0.00276  -0.1369   0.3504   0.6455
   2.000   1.0242   0.00830   0.00315  -0.1347   0.2997   0.6561
   2.500   1.0673   0.00901   0.00361  -0.1322   0.2464   0.6652
   3.000   1.1096   0.00975   0.00412  -0.1296   0.1953   0.6720
   3.500   1.1502   0.01055   0.00468  -0.1266   0.1482   0.6783
   4.000   1.1868   0.01133   0.00525  -0.1228   0.1105   0.6835
   4.500   1.2278   0.01210   0.00587  -0.1201   0.0836   0.6890
   5.000   1.2692   0.01287   0.00652  -0.1174   0.0636   0.6929
   5.500   1.3113   0.01355   0.00714  -0.1150   0.0513   0.6966
   6.000   1.3525   0.01430   0.00783  -0.1124   0.0417   0.7001
   6.500   1.3932   0.01502   0.00854  -0.1099   0.0350   0.7035
   7.000   1.4333   0.01579   0.00930  -0.1073   0.0298   0.7067
   8.000   1.5095   0.01754   0.01108  -0.1018   0.0227   0.7136
   8.500   1.5471   0.01844   0.01201  -0.0990   0.0208   0.7170
   9.500   1.6166   0.02060   0.01426  -0.0930   0.0173   0.7253
  10.000   1.6474   0.02195   0.01568  -0.0896   0.0155   0.7310
  10.500   1.6803   0.02311   0.01702  -0.0867   0.0148   0.7767
  11.000   1.7068   0.02421   0.01853  -0.0827   0.0138   0.9999
  11.500   1.7309   0.02605   0.02044  -0.0788   0.0126   0.9999
  12.000   1.7578   0.02769   0.02215  -0.0755   0.0122   0.9999
  12.500   1.7812   0.02961   0.02415  -0.0719   0.0116   0.9999
  13.000   1.8007   0.03184   0.02644  -0.0682   0.0110   0.9999
  13.500   1.8142   0.03464   0.02934  -0.0641   0.0103   0.9999
  14.000   1.8293   0.03742   0.03223  -0.0604   0.0100   0.9999
  14.500   1.8438   0.04035   0.03527  -0.0571   0.0097   0.9999
  15.000   1.8550   0.04373   0.03876  -0.0539   0.0094   0.9999
