  
       XFOIL         Version 6.99
  
 Calculated polar for: NACA 2412                                       
  
 1 1 Reynolds number fixed          Mach number fixed         
  
 xtrf =   1.000 (top)        1.000 (bottom)  
 Mach =   0.000     Re =     1.521 e 6     Ncrit =   9.000
  
   alpha    CL        CD       CDp       CM     Top_Xtr  Bot_Xtr
  ------ -------- --------- --------- -------- -------- --------
 -15.000  -0.6351   0.01590   0.01101  -0.1619   0.7775   0.0173
 -14.500  -0.5808   0.01505   0.01005  -0.1630   0.7782   0.0180
 -14.000  -0.5276   0.01378   0.00867  -0.1642   0.7788   0.0193
 -13.500  -0.4722   0.01307   0.00790  -0.1652   0.7795   0.0206
 -13.000  -0.4160   0.01252   0.00728  -0.1661   0.7802   0.0216
 -12.500  -0.3603   0.01171   0.00643  -0.1671   0.7808   0.0239
 -12.000  -0.3035   0.01126   0.00593  -0.1679   0.7815   0.0256
 -11.500  -0.2468   0.01067   0.00531  -0.1688   0.7822   0.0284
 -11.000  -0.1894   0.01031   0.00492  -0.1696   0.7829   0.0310
 -10.500  -0.1320   0.00989   0.00450  -0.1704   0.7837   0.0350
 -10.000  -0.0744   0.00953   0.00415  -0.1712   0.7844   0.0399
  -9.500  -0.0166   0.00923   0.00387  -0.1720   0.7852   0.0463
  -9.000   0.0414   0.00896   0.00363  -0.1728   0.7860   0.0544
  -8.500   0.0995   0.00873   0.00345  -0.1735   0.7867   0.0653
  -8.000   0.1577   0.00847   0.00322  -0.1742   0.7861   0.0790
  -7.500   0.2159   0.00814   0.00298  -0.1749   0.7846   0.0996
  -7.000   0.2743   0.00788   0.00278  -0.1756   0.7835   0.1240
  -6.500   0.3327   0.00764   0.00264  -0.1762   0.7826   0.1539
  -6.000   0.3912   0.00741   0.00251  -0.1769   0.7815   0.1877
  -5.500   0.4498   0.00720   0.00241  -0.1775   0.7802   0.2265
  -5.000   0.5083   0.00704   0.00234  -0.1781   0.7788   0.2658
  -4.500   0.5665   0.00694   0.00237  -0.1786   0.7766   0.3096
  -4.000   0.6244   0.00688   0.00243  -0.1790   0.7746   0.3533
  -3.500   0.6826   0.00660   0.00230  -0.1794   0.7727   0.4005
  -3.000   0.7406   0.00634   0.00220  -0.1797   0.7695   0.4547
  -2.500   0.7987   0.00611   0.00207  -0.1800   0.7649   0.5012
  -2.000   0.8563   0.00604   0.00206  -0.1802   0.7590   0.5384
  -1.500   0.9129   0.00581   0.00195  -0.1801   0.7523   0.5657
  -1.000   0.9691   0.00566   0.00187  -0.1799   0.7377   0.5876
  -0.500   0.9892   0.00712   0.00260  -0.1724   0.5547   0.6029
  -0.000   1.0243   0.00795   0.00317  -0.1681   0.4882   0.6173
   0.500   1.0606   0.00863   0.00368  -0.1641   0.4423   0.6293
   1.000   1.0901   0.00930   0.00421  -0.1587   0.4015   0.6393
   1.500   1.1216   0.01021   0.00492  -0.1539   0.3535   0.6484
   2.000   1.1527   0.01126   0.00575  -0.1494   0.3026   0.6556
   2.500   1.1831   0.01246   0.00668  -0.1448   0.2468   0.6624
   3.000   1.2155   0.01365   0.00760  -0.1408   0.1924   0.6680
   3.500   1.2497   0.01483   0.00853  -0.1371   0.1444   0.6731
   4.000   1.2850   0.01600   0.00946  -0.1337   0.1060   0.6789
   4.500   1.3226   0.01703   0.01036  -0.1307   0.0799   0.6824
   5.000   1.3598   0.01809   0.01130  -0.1277   0.0606   0.6865
   5.500   1.3982   0.01907   0.01223  -0.1250   0.0491   0.6899
   6.000   1.4358   0.02008   0.01321  -0.1221   0.0402   0.6934
   6.500   1.4725   0.02116   0.01427  -0.1192   0.0342   0.6971
   7.000   1.5089   0.02223   0.01536  -0.1164   0.0297   0.7003
   7.500   1.5426   0.02349   0.01661  -0.1132   0.0258   0.7037
   8.000   1.5773   0.02463   0.01782  -0.1103   0.0235   0.7067
   8.500   1.6086   0.02603   0.01927  -0.1069   0.0212   0.7099
   9.000   1.6399   0.02741   0.02072  -0.1037   0.0195   0.7128
   9.500   1.6666   0.02914   0.02252  -0.0999   0.0177   0.7158
  10.000   1.6952   0.03071   0.02419  -0.0966   0.0167   0.7188
  10.500   1.7194   0.03264   0.02620  -0.0928   0.0156   0.7216
  11.000   1.7391   0.03499   0.02866  -0.0887   0.0145   0.7251
  11.500   1.7611   0.03715   0.03095  -0.0851   0.0139   0.7281
  12.000   1.7809   0.03957   0.03348  -0.0814   0.0132   0.7315
  12.500   1.7964   0.04242   0.03645  -0.0777   0.0125   0.7383
  13.500   1.8126   0.04925   0.04399  -0.0695   0.0115   0.9998
  14.000   1.8209   0.05319   0.04807  -0.0663   0.0111   0.9998
  14.500   1.8251   0.05772   0.05275  -0.0633   0.0107   0.9998
  15.000   1.8243   0.06323   0.05841  -0.0610   0.0104   0.9998
  15.500   1.8179   0.06997   0.06532  -0.0597   0.0101   0.9998
  16.000   1.8017   0.07843   0.07399  -0.0596   0.0097   0.9998
  16.500   1.7716   0.08940   0.08522  -0.0611   0.0094   0.9998
  17.000   1.7427   0.10054   0.09660  -0.0637   0.0093   0.9998
  17.500   1.7179   0.11133   0.10763  -0.0670   0.0092   0.9998
  18.000   1.6915   0.12272   0.11923  -0.0714   0.0091   0.9998
  18.500   1.6631   0.13471   0.13145  -0.0769   0.0091   0.9998
  19.000   1.6338   0.14742   0.14438  -0.0837   0.0090   0.9998
  19.500   1.6065   0.16011   0.15728  -0.0913   0.0088   0.9998
  20.000   1.5796   0.17310   0.17048  -0.0999   0.0087   0.9998
  20.500   1.5542   0.18633   0.18391  -0.1093   0.0086   0.9998
  21.000   1.5320   0.19934   0.19710  -0.1190   0.0085   0.9998
  21.500   1.5108   0.21257   0.21050  -0.1294   0.0083   0.9998
  22.000   1.4948   0.22484   0.22291  -0.1394   0.0081   0.9998
  22.500   1.4789   0.23748   0.23570  -0.1500   0.0080   0.9998
  23.000   1.4671   0.24943   0.24776  -0.1601   0.0078   0.9998
  23.500   1.4588   0.26064   0.25906  -0.1699   0.0075   0.9998
  24.000   1.4413   0.27574   0.27434  -0.1828   0.0072   0.9998
  25.000   0.8445   0.32000   0.31910  -0.1394   0.0054   0.9998
