  
       XFOIL         Version 6.99
  
 Calculated polar for: NACA 2412                                       
  
 1 1 Reynolds number fixed          Mach number fixed         
  
 xtrf =   1.000 (top)        1.000 (bottom)  
 Mach =   0.000     Re =     2.332 e 6     Ncrit =   9.000
  
   alpha    CL        CD       CDp       CM     Top_Xtr  Bot_Xtr
  ------ -------- --------- --------- -------- -------- --------
 -15.000  -1.1716   0.01822   0.01421  -0.0862   0.9944   0.0115
 -14.500  -1.1216   0.01651   0.01235  -0.0872   0.9886   0.0122
 -14.000  -1.0683   0.01534   0.01111  -0.0881   0.9815   0.0129
 -13.500  -1.0193   0.01447   0.01015  -0.0877   0.9699   0.0134
 -13.000  -0.9709   0.01372   0.00931  -0.0868   0.9561   0.0139
 -12.500  -0.9210   0.01305   0.00854  -0.0862   0.9422   0.0143
 -12.000  -0.8715   0.01214   0.00752  -0.0856   0.9280   0.0156
 -11.500  -0.8192   0.01155   0.00686  -0.0853   0.9151   0.0166
 -11.000  -0.7657   0.01106   0.00628  -0.0852   0.9032   0.0173
 -10.500  -0.7130   0.01040   0.00553  -0.0849   0.8916   0.0189
 -10.000  -0.6584   0.00992   0.00501  -0.0849   0.8823   0.0203
  -9.500  -0.6036   0.00945   0.00447  -0.0849   0.8738   0.0221
  -9.000  -0.5480   0.00903   0.00403  -0.0850   0.8666   0.0242
  -8.500  -0.4926   0.00862   0.00357  -0.0851   0.8567   0.0268
  -7.500  -0.3803   0.00793   0.00283  -0.0853   0.8382   0.0337
  -7.000  -0.3236   0.00759   0.00250  -0.0855   0.8324   0.0390
  -6.500  -0.2668   0.00731   0.00222  -0.0857   0.8263   0.0458
  -6.000  -0.2094   0.00701   0.00196  -0.0860   0.8221   0.0543
  -5.500  -0.1521   0.00673   0.00172  -0.0863   0.8164   0.0666
  -5.000  -0.0949   0.00648   0.00152  -0.0865   0.8099   0.0828
  -4.500  -0.0371   0.00620   0.00134  -0.0869   0.8048   0.1040
  -4.000   0.0203   0.00597   0.00118  -0.0871   0.7975   0.1301
  -3.500   0.0780   0.00574   0.00106  -0.0875   0.7905   0.1624
  -3.000   0.1355   0.00552   0.00095  -0.0877   0.7815   0.2012
  -2.500   0.1932   0.00532   0.00087  -0.0880   0.7713   0.2436
  -2.000   0.2505   0.00515   0.00081  -0.0883   0.7560   0.2912
  -1.500   0.3068   0.00505   0.00075  -0.0882   0.7150   0.3442
  -1.000   0.3583   0.00532   0.00084  -0.0874   0.6248   0.4054
  -0.500   0.4127   0.00535   0.00092  -0.0871   0.5779   0.4884
  -0.000   0.4675   0.00542   0.00103  -0.0869   0.5381   0.5580
   0.500   0.5227   0.00553   0.00114  -0.0867   0.5033   0.6115
   1.000   0.5779   0.00569   0.00129  -0.0865   0.4712   0.6508
   2.000   0.6883   0.00616   0.00159  -0.0860   0.4089   0.6941
   2.500   0.7426   0.00645   0.00176  -0.0857   0.3725   0.7064
   3.500   0.8469   0.00712   0.00226  -0.0843   0.2817   0.7690
   4.000   0.8995   0.00724   0.00266  -0.0837   0.2311   1.0000
   4.500   0.9490   0.00787   0.00304  -0.0825   0.1821   1.0000
   5.000   0.9979   0.00854   0.00348  -0.0813   0.1378   1.0000
   5.500   1.0465   0.00923   0.00396  -0.0800   0.1014   1.0000
   6.000   1.0955   0.00987   0.00445  -0.0788   0.0758   1.0000
   6.500   1.1446   0.01047   0.00494  -0.0777   0.0595   1.0000
   7.000   1.1931   0.01107   0.00547  -0.0764   0.0470   1.0000
   7.500   1.2413   0.01167   0.00601  -0.0752   0.0390   1.0000
   8.000   1.2885   0.01229   0.00660  -0.0737   0.0326   1.0000
   8.500   1.3347   0.01294   0.00722  -0.0722   0.0281   1.0000
   9.000   1.3791   0.01365   0.00791  -0.0703   0.0243   1.0000
   9.500   1.4225   0.01433   0.00860  -0.0683   0.0219   1.0000
  10.000   1.4622   0.01508   0.00936  -0.0657   0.0198   1.0000
  10.500   1.4984   0.01589   0.01019  -0.0624   0.0181   1.0000
  11.000   1.5328   0.01683   0.01117  -0.0591   0.0166   1.0000
  11.500   1.5672   0.01777   0.01215  -0.0560   0.0155   1.0000
  12.000   1.5968   0.01903   0.01344  -0.0524   0.0141   1.0000
  12.500   1.6274   0.02025   0.01474  -0.0492   0.0135   1.0000
  13.000   1.6562   0.02162   0.01618  -0.0459   0.0129   1.0000
  13.500   1.6813   0.02329   0.01790  -0.0425   0.0121   1.0000
  14.000   1.6991   0.02555   0.02026  -0.0387   0.0112   1.0000
  14.500   1.7217   0.02755   0.02236  -0.0357   0.0110   1.0000
  15.000   1.7411   0.02988   0.02478  -0.0327   0.0106   1.0000
  15.500   1.7568   0.03262   0.02762  -0.0299   0.0102   1.0000
  16.000   1.7670   0.03595   0.03106  -0.0272   0.0098   1.0000
  16.500   1.7708   0.04016   0.03539  -0.0248   0.0093   1.0000
  17.000   1.7640   0.04589   0.04131  -0.0230   0.0089   1.0000
  17.500   1.7661   0.05125   0.04682  -0.0225   0.0088   1.0000
  18.000   1.7629   0.05758   0.05331  -0.0228   0.0087   1.0000
  18.500   1.7537   0.06503   0.06094  -0.0239   0.0085   1.0000
  19.000   1.7366   0.07379   0.06989  -0.0258   0.0084   1.0000
  19.500   1.7128   0.08380   0.08009  -0.0286   0.0082   1.0000
  20.000   1.6819   0.09514   0.09165  -0.0324   0.0081   1.0000
  20.500   1.6454   0.10777   0.10450  -0.0373   0.0081   1.0000
  21.000   1.6038   0.12161   0.11856  -0.0435   0.0080   1.0000
  21.500   1.5613   0.13625   0.13343  -0.0509   0.0079   1.0000
  22.000   1.5181   0.15153   0.14893  -0.0596   0.0079   1.0000
  22.500   1.4734   0.16804   0.16567  -0.0700   0.0078   1.0000
  23.000   1.4345   0.18406   0.18189  -0.0810   0.0077   1.0000
  23.500   1.3989   0.20034   0.19836  -0.0928   0.0077   1.0000
  24.000   1.3694   0.21611   0.21430  -0.1047   0.0075   1.0000
  24.500   1.3502   0.22992   0.22823  -0.1155   0.0073   1.0000
  25.000   1.3352   0.24292   0.24134  -0.1258   0.0069   1.0000
