  
       XFOIL         Version 6.99
  
 Calculated polar for: NACA 0012                                       
  
 1 1 Reynolds number fixed          Mach number fixed         
  
 xtrf =   1.000 (top)        1.000 (bottom)  
 Mach =   0.000     Re =     2.332 e 6     Ncrit =   9.000
  
   alpha    CL        CD       CDp       CM     Top_Xtr  Bot_Xtr
  ------ -------- --------- --------- -------- -------- --------
 -12.000  -1.4058   0.01628   0.01113   0.0088   1.0000   0.0136
 -11.500  -1.3634   0.01534   0.01012   0.0107   1.0000   0.0144
 -11.000  -1.3189   0.01449   0.00925   0.0123   1.0000   0.0155
 -10.500  -1.2721   0.01381   0.00853   0.0137   1.0000   0.0165
 -10.000  -1.2251   0.01308   0.00777   0.0150   1.0000   0.0178
  -9.500  -1.1771   0.01242   0.00712   0.0163   1.0000   0.0194
  -9.000  -1.1283   0.01185   0.00651   0.0175   1.0000   0.0209
  -8.500  -1.0800   0.01125   0.00592   0.0188   1.0000   0.0233
  -8.000  -1.0318   0.01072   0.00540   0.0202   1.0000   0.0258
  -7.500  -0.9843   0.01027   0.00495   0.0219   1.0000   0.0285
  -7.000  -0.9381   0.00977   0.00449   0.0238   1.0000   0.0329
  -6.500  -0.8879   0.00931   0.00407   0.0249   0.9995   0.0385
  -6.000  -0.8214   0.00882   0.00364   0.0225   0.9964   0.0462
  -5.500  -0.7545   0.00832   0.00323   0.0199   0.9928   0.0585
  -5.000  -0.6916   0.00787   0.00287   0.0183   0.9819   0.0733
  -4.500  -0.6358   0.00743   0.00252   0.0184   0.9532   0.0952
  -4.000  -0.5879   0.00722   0.00219   0.0204   0.8588   0.1218
  -3.500  -0.5370   0.00714   0.00190   0.0215   0.7472   0.1551
  -3.000  -0.4831   0.00682   0.00167   0.0219   0.7195   0.1979
  -2.500  -0.4285   0.00648   0.00147   0.0221   0.7049   0.2454
  -2.000  -0.3734   0.00616   0.00130   0.0223   0.6897   0.2962
  -1.500  -0.3181   0.00585   0.00115   0.0225   0.6683   0.3493
  -1.000  -0.2627   0.00559   0.00101   0.0227   0.6406   0.4047
  -0.500  -0.2072   0.00540   0.00091   0.0228   0.6078   0.4603
  -0.000  -0.1519   0.00523   0.00084   0.0230   0.5710   0.5189
