  
       XFOIL         Version 6.99
  
 Calculated polar for: NACA 0012                                       
  
 1 1 Reynolds number fixed          Mach number fixed         
  
 xtrf =   1.000 (top)        1.000 (bottom)  
 Mach =   0.000     Re =     1.521 e 6     Ncrit =   9.000
  
   alpha    CL        CD       CDp       CM     Top_Xtr  Bot_Xtr
  ------ -------- --------- --------- -------- -------- --------
 -12.000  -1.5063   0.02151   0.01613   0.0212   0.9999   0.0142
 -11.500  -1.4774   0.02015   0.01470   0.0248   0.9999   0.0149
 -11.000  -1.4446   0.01907   0.01353   0.0282   0.9999   0.0157
 -10.500  -1.4093   0.01815   0.01253   0.0315   0.9999   0.0163
 -10.000  -1.3745   0.01697   0.01128   0.0348   0.9999   0.0176
  -9.500  -1.3325   0.01611   0.01039   0.0370   0.9999   0.0189
  -9.000  -1.2877   0.01540   0.00962   0.0388   0.9999   0.0199
  -8.500  -1.2445   0.01445   0.00865   0.0409   0.9999   0.0221
  -8.000  -1.1972   0.01381   0.00798   0.0424   0.9999   0.0237
  -7.500  -1.1508   0.01303   0.00720   0.0440   0.9999   0.0268
  -7.000  -1.1023   0.01239   0.00656   0.0454   0.9999   0.0298
  -6.500  -1.0530   0.01182   0.00599   0.0466   0.9999   0.0333
  -6.000  -1.0037   0.01121   0.00542   0.0478   0.9999   0.0390
  -5.500  -0.9506   0.01118   0.00484   0.0484   0.7472   0.0461
  -5.000  -0.8997   0.01073   0.00436   0.0493   0.7304   0.0566
  -4.500  -0.8484   0.01026   0.00393   0.0502   0.7203   0.0711
  -4.000  -0.7968   0.00980   0.00354   0.0511   0.7122   0.0917
  -3.500  -0.7450   0.00932   0.00318   0.0519   0.7047   0.1201
  -3.000  -0.6930   0.00885   0.00285   0.0526   0.6976   0.1567
  -2.500  -0.6408   0.00832   0.00252   0.0534   0.6893   0.2031
  -2.000  -0.5887   0.00775   0.00221   0.0541   0.6801   0.2592
  -1.500  -0.5359   0.00726   0.00193   0.0548   0.6694   0.3182
  -1.000  -0.4831   0.00678   0.00169   0.0554   0.6558   0.3823
  -0.500  -0.4302   0.00634   0.00147   0.0561   0.6389   0.4504
  -0.000  -0.3777   0.00589   0.00127   0.0568   0.6183   0.5283
