  
       XFOIL         Version 6.99
  
 Calculated polar for: NACA 0012                                       
  
 1 1 Reynolds number fixed          Mach number fixed         
  
 xtrf =   1.000 (top)        1.000 (bottom)  
 Mach =   0.000     Re =     1.521 e 6     Ncrit =   9.000
  
   alpha    CL        CD       CDp       CM     Top_Xtr  Bot_Xtr
  ------ -------- --------- --------- -------- -------- --------
 -12.000  -0.4617   0.01098   0.00534  -0.1285   0.7741   0.0352
 -11.500  -0.4054   0.01051   0.00487  -0.1292   0.7749   0.0406
 -11.000  -0.3489   0.01008   0.00446  -0.1299   0.7758   0.0473
 -10.500  -0.2922   0.00968   0.00411  -0.1306   0.7766   0.0569
 -10.000  -0.2352   0.00933   0.00381  -0.1313   0.7775   0.0693
  -9.500  -0.1781   0.00899   0.00355  -0.1320   0.7784   0.0871
  -9.000  -0.1208   0.00868   0.00334  -0.1327   0.7793   0.1094
  -8.500  -0.0634   0.00839   0.00317  -0.1334   0.7803   0.1382
  -8.000  -0.0058   0.00812   0.00304  -0.1340   0.7813   0.1738
  -7.500   0.0519   0.00789   0.00295  -0.1347   0.7822   0.2117
  -7.000   0.1097   0.00774   0.00292  -0.1353   0.7832   0.2494
  -6.500   0.1677   0.00755   0.00288  -0.1359   0.7834   0.2888
  -6.000   0.2261   0.00717   0.00259  -0.1364   0.7797   0.3265
  -5.500   0.2846   0.00687   0.00236  -0.1368   0.7761   0.3616
  -5.000   0.3430   0.00670   0.00224  -0.1372   0.7729   0.3943
  -4.500   0.4005   0.00673   0.00236  -0.1375   0.7696   0.4245
  -4.000   0.4591   0.00643   0.00216  -0.1378   0.7672   0.4524
  -3.500   0.5174   0.00618   0.00199  -0.1381   0.7628   0.4784
  -3.000   0.5755   0.00598   0.00182  -0.1382   0.7570   0.5021
  -2.500   0.6332   0.00582   0.00174  -0.1383   0.7504   0.5233
  -1.500   0.7255   0.00667   0.00203  -0.1339   0.5484   0.5588
  -1.000   0.7608   0.00773   0.00262  -0.1298   0.4262   0.5741
  -0.500   0.7994   0.00850   0.00309  -0.1263   0.3436   0.5879
  -0.000   0.8379   0.00924   0.00356  -0.1228   0.2755   0.6003
