  
       XFOIL         Version 6.99
  
 Calculated polar for: NACA 2412                                       
  
 1 1 Reynolds number fixed          Mach number fixed         
  
 xtrf =   1.000 (top)        1.000 (bottom)  
 Mach =   0.000     Re =     1.521 e 6     Ncrit =   9.000
  
   alpha    CL        CD       CDp       CM     Top_Xtr  Bot_Xtr
  ------ -------- --------- --------- -------- -------- --------
  -5.000  -0.4587   0.00830   0.00294  -0.0327   0.9002   0.0492
  -4.500  -0.4077   0.00813   0.00257  -0.0314   0.8241   0.0589
  -3.500  -0.3002   0.00778   0.00202  -0.0303   0.7341   0.0908
  -3.000  -0.2448   0.00753   0.00180  -0.0301   0.7176   0.1155
  -2.500  -0.1892   0.00727   0.00162  -0.0300   0.7039   0.1477
  -2.000  -0.1331   0.00700   0.00146  -0.0300   0.6894   0.1871
  -1.500  -0.0771   0.00673   0.00131  -0.0299   0.6717   0.2351
  -1.000  -0.0213   0.00646   0.00119  -0.0299   0.6508   0.2925
  -0.500   0.0343   0.00621   0.00109  -0.0298   0.6266   0.3623
   0.000   0.0890   0.00588   0.00102  -0.0296   0.6014   0.4687
   0.500   0.1428   0.00549   0.00097  -0.0292   0.5749   0.6052
   1.000   0.1953   0.00511   0.00101  -0.0284   0.5496   0.7663
   1.500   0.2508   0.00514   0.00107  -0.0282   0.5240   0.8107
   2.000   0.3068   0.00520   0.00114  -0.0279   0.5000   0.8417
   2.500   0.3626   0.00531   0.00123  -0.0277   0.4759   0.8675
   3.000   0.4182   0.00543   0.00134  -0.0274   0.4523   0.8908
   3.500   0.4728   0.00558   0.00147  -0.0270   0.4268   0.9145
   4.000   0.5268   0.00577   0.00162  -0.0263   0.3989   0.9381
   4.500   0.5794   0.00603   0.00180  -0.0254   0.3652   0.9632
   5.000   0.6369   0.00641   0.00204  -0.0257   0.3252   0.9834
   5.500   0.7041   0.00692   0.00234  -0.0284   0.2758   0.9906
   6.000   0.7702   0.00752   0.00270  -0.0311   0.2220   0.9949
   6.500   0.8347   0.00822   0.00313  -0.0335   0.1682   0.9980
   7.000   0.8920   0.00892   0.00361  -0.0343   0.1244   1.0000
   7.500   0.9336   0.00954   0.00406  -0.0317   0.0948   1.0000
   8.000   0.9774   0.01016   0.00457  -0.0296   0.0726   1.0000
   8.500   1.0230   0.01081   0.00511  -0.0279   0.0567   1.0000
   9.000   1.0706   0.01142   0.00568  -0.0266   0.0463   1.0000
   9.500   1.1184   0.01208   0.00630  -0.0254   0.0387   1.0000
  10.000   1.1659   0.01276   0.00696  -0.0242   0.0329   1.0000
  10.500   1.2127   0.01350   0.00770  -0.0230   0.0287   1.0000
  11.000   1.2574   0.01436   0.00856  -0.0216   0.0250   1.0000
  11.500   1.3033   0.01507   0.00931  -0.0203   0.0230   1.0000
  12.000   1.3449   0.01606   0.01033  -0.0185   0.0207   1.0000
  12.500   1.3868   0.01692   0.01124  -0.0167   0.0193   1.0000
  13.000   1.4218   0.01814   0.01251  -0.0141   0.0176   1.0000
  13.500   1.4541   0.01916   0.01362  -0.0109   0.0167   1.0000
  14.000   1.4826   0.02040   0.01493  -0.0075   0.0158   1.0000
  14.500   1.5048   0.02214   0.01675  -0.0040   0.0148   1.0000
  15.000   1.5229   0.02435   0.01910  -0.0007   0.0141   1.0000
