  
       XFOIL         Version 6.99
  
 Calculated polar for: NACA 2412                                       
  
 1 1 Reynolds number fixed          Mach number fixed         
  
 xtrf =   1.000 (top)        1.000 (bottom)  
 Mach =   0.000     Re =     2.332 e 6     Ncrit =   9.000
  
   alpha    CL        CD       CDp       CM     Top_Xtr  Bot_Xtr
  ------ -------- --------- --------- -------- -------- --------
 -15.000  -1.4068   0.02176   0.01768  -0.0529   1.0000   0.0105
 -14.500  -1.3704   0.02049   0.01632  -0.0508   1.0000   0.0108
 -14.000  -1.3313   0.01937   0.01510  -0.0489   1.0000   0.0110
 -13.500  -1.2968   0.01781   0.01341  -0.0463   1.0000   0.0115
 -13.000  -1.2598   0.01666   0.01218  -0.0435   1.0000   0.0121
 -12.500  -1.2215   0.01578   0.01124  -0.0407   1.0000   0.0126
 -12.000  -1.1837   0.01502   0.01041  -0.0377   1.0000   0.0131
 -11.500  -1.1449   0.01434   0.00968  -0.0347   1.0000   0.0135
 -11.000  -1.0847   0.01336   0.00862  -0.0363   0.9984   0.0143
 -10.500  -1.0234   0.01256   0.00780  -0.0379   0.9966   0.0154
 -10.000  -0.9606   0.01192   0.00713  -0.0398   0.9950   0.0163
  -9.500  -0.8968   0.01118   0.00635  -0.0419   0.9938   0.0176
  -9.000  -0.8366   0.01056   0.00572  -0.0431   0.9903   0.0190
  -8.500  -0.7738   0.01004   0.00518  -0.0447   0.9862   0.0202
  -8.000  -0.7158   0.00947   0.00461  -0.0453   0.9784   0.0227
  -7.500  -0.6609   0.00902   0.00414  -0.0450   0.9681   0.0247
  -7.000  -0.6078   0.00860   0.00370  -0.0444   0.9549   0.0275
  -6.500  -0.5544   0.00821   0.00330  -0.0437   0.9391   0.0312
  -6.000  -0.5003   0.00787   0.00293  -0.0432   0.9186   0.0354
  -5.500  -0.4463   0.00759   0.00259  -0.0426   0.8909   0.0410
  -5.000  -0.3920   0.00735   0.00228  -0.0421   0.8535   0.0486
  -4.500  -0.3378   0.00718   0.00200  -0.0416   0.8065   0.0587
  -4.000  -0.2830   0.00704   0.00177  -0.0413   0.7615   0.0711
  -3.000  -0.1713   0.00666   0.00139  -0.0411   0.7111   0.1131
  -2.500  -0.1148   0.00644   0.00124  -0.0411   0.6926   0.1431
  -2.000  -0.0585   0.00624   0.00111  -0.0411   0.6691   0.1799
  -1.500  -0.0022   0.00606   0.00101  -0.0412   0.6431   0.2232
  -1.000   0.0540   0.00592   0.00093  -0.0412   0.6152   0.2735
  -0.500   0.1101   0.00579   0.00088  -0.0412   0.5859   0.3304
  -0.000   0.1660   0.00562   0.00085  -0.0412   0.5581   0.4051
   0.500   0.2213   0.00539   0.00085  -0.0411   0.5312   0.5156
   1.500   0.3310   0.00496   0.00094  -0.0407   0.4808   0.7505
   2.000   0.3866   0.00497   0.00103  -0.0405   0.4562   0.8075
   2.500   0.4422   0.00503   0.00113  -0.0402   0.4325   0.8513
   3.000   0.4971   0.00515   0.00125  -0.0399   0.4056   0.8897
   3.500   0.5508   0.00531   0.00140  -0.0392   0.3741   0.9251
   4.000   0.6030   0.00558   0.00159  -0.0382   0.3375   0.9556
   4.500   0.6575   0.00593   0.00181  -0.0379   0.2960   0.9788
   5.000   0.7200   0.00643   0.00209  -0.0395   0.2470   0.9926
   5.500   0.7888   0.00702   0.00244  -0.0427   0.1951   0.9966
   6.000   0.8534   0.00768   0.00285  -0.0450   0.1456   0.9996
   6.500   0.9010   0.00826   0.00324  -0.0436   0.1103   1.0000
   7.000   0.9463   0.00881   0.00364  -0.0416   0.0846   1.0000
   7.500   0.9932   0.00937   0.00409  -0.0400   0.0650   1.0000
   8.000   1.0420   0.00991   0.00455  -0.0388   0.0519   1.0000
   8.500   1.0912   0.01049   0.00506  -0.0377   0.0417   1.0000
   9.000   1.1406   0.01107   0.00559  -0.0368   0.0346   1.0000
   9.500   1.1896   0.01167   0.00616  -0.0358   0.0294   1.0000
  10.000   1.2384   0.01226   0.00674  -0.0349   0.0262   1.0000
  10.500   1.2863   0.01289   0.00738  -0.0338   0.0232   1.0000
  11.000   1.3324   0.01363   0.00812  -0.0325   0.0205   1.0000
  11.500   1.3782   0.01432   0.00883  -0.0312   0.0189   1.0000
  12.000   1.4209   0.01519   0.00972  -0.0294   0.0171   1.0000
  12.500   1.4635   0.01596   0.01052  -0.0277   0.0160   1.0000
  13.000   1.5010   0.01695   0.01154  -0.0252   0.0146   1.0000
  13.500   1.5331   0.01794   0.01259  -0.0218   0.0138   1.0000
  14.000   1.5635   0.01901   0.01373  -0.0185   0.0132   1.0000
  14.500   1.5904   0.02036   0.01514  -0.0150   0.0125   1.0000
  15.000   1.6105   0.02226   0.01713  -0.0113   0.0116   1.0000
  15.500   1.6332   0.02416   0.01913  -0.0085   0.0113   1.0000
  16.000   1.6543   0.02635   0.02142  -0.0062   0.0109   1.0000
  16.500   1.6715   0.02910   0.02428  -0.0043   0.0105   1.0000
  17.000   1.6840   0.03256   0.02784  -0.0029   0.0101   1.0000
  17.500   1.6895   0.03700   0.03241  -0.0020   0.0097   1.0000
  18.000   1.6832   0.04300   0.03859  -0.0018   0.0092   1.0000
  18.500   1.6781   0.04928   0.04503  -0.0025   0.0091   1.0000
  19.000   1.6714   0.05605   0.05198  -0.0037   0.0089   1.0000
  19.500   1.6585   0.06400   0.06010  -0.0057   0.0088   1.0000
  20.000   1.6376   0.07337   0.06967  -0.0086   0.0087   1.0000
  20.500   1.6096   0.08408   0.08058  -0.0124   0.0086   1.0000
  21.000   1.5744   0.09630   0.09301  -0.0172   0.0085   1.0000
  21.500   1.5333   0.10982   0.10675  -0.0229   0.0085   1.0000
  22.000   1.4881   0.12455   0.12171  -0.0299   0.0084   1.0000
  22.500   1.4422   0.14008   0.13747  -0.0381   0.0084   1.0000
  23.000   1.3942   0.15671   0.15433  -0.0478   0.0083   1.0000
  23.500   1.3540   0.17282   0.17063  -0.0580   0.0082   1.0000
  24.000   1.3183   0.18873   0.18673  -0.0688   0.0082   1.0000
  24.500   1.2892   0.20406   0.20222  -0.0796   0.0080   1.0000
  25.000   1.2713   0.21732   0.21560  -0.0894   0.0078   1.0000
