  
       XFOIL         Version 6.99
  
 Calculated polar for: NACA 0012                                       
  
 1 1 Reynolds number fixed          Mach number fixed         
  
 xtrf =   1.000 (top)        1.000 (bottom)  
 Mach =   0.000     Re =     1.521 e 6     Ncrit =   9.000
  
   alpha    CL        CD       CDp       CM     Top_Xtr  Bot_Xtr
  ------ -------- --------- --------- -------- -------- --------
 -12.000  -1.7245   0.03883   0.03312   0.0533   0.7076   0.0115
 -11.500  -1.7177   0.03552   0.02962   0.0584   0.7057   0.0121
 -11.000  -1.6990   0.03319   0.02718   0.0626   0.7034   0.0127
 -10.500  -1.6754   0.03128   0.02517   0.0664   0.7011   0.0132
 -10.000  -1.6482   0.02962   0.02340   0.0700   0.6984   0.0138
  -9.500  -1.6181   0.02817   0.02185   0.0734   0.6958   0.0143
  -9.000  -1.5913   0.02638   0.01996   0.0774   0.6934   0.0154
  -8.500  -1.5585   0.02504   0.01857   0.0806   0.6902   0.0164
  -8.000  -1.5228   0.02391   0.01736   0.0836   0.6877   0.0172
  -7.500  -1.4881   0.02265   0.01602   0.0867   0.6849   0.0186
  -7.000  -1.4505   0.02157   0.01493   0.0896   0.6814   0.0201
  -6.500  -1.4106   0.02068   0.01397   0.0921   0.6785   0.0214
  -6.000  -1.3720   0.01962   0.01290   0.0949   0.6761   0.0240
  -5.500  -1.3304   0.01879   0.01203   0.0974   0.6719   0.0260
  -5.000  -1.2891   0.01790   0.01115   0.0999   0.6680   0.0295
  -4.500  -1.2468   0.01708   0.01033   0.1022   0.6645   0.0337
  -4.000  -1.2038   0.01632   0.00958   0.1045   0.6598   0.0388
  -3.500  -1.1604   0.01557   0.00887   0.1068   0.6544   0.0457
  -3.000  -1.1171   0.01483   0.00817   0.1091   0.6490   0.0557
  -2.500  -1.0739   0.01410   0.00752   0.1114   0.6424   0.0690
  -2.000  -1.0312   0.01335   0.00686   0.1138   0.6351   0.0884
  -1.500  -0.9896   0.01258   0.00623   0.1165   0.6272   0.1157
  -1.000  -0.9493   0.01178   0.00558   0.1193   0.6179   0.1507
  -0.500  -0.9118   0.01091   0.00492   0.1228   0.6082   0.1965
  -0.000  -0.8767   0.01005   0.00426   0.1267   0.5974   0.2500
