  
       XFOIL         Version 6.99
  
 Calculated polar for: NACA 2412                                       
  
 1 1 Reynolds number fixed          Mach number fixed         
  
 xtrf =   1.000 (top)        1.000 (bottom)  
 Mach =   0.000     Re =     2.332 e 6     Ncrit =   9.000
  
   alpha    CL        CD       CDp       CM     Top_Xtr  Bot_Xtr
  ------ -------- --------- --------- -------- -------- --------
 -15.000  -1.7902   0.05310   0.04886   0.0091   0.6928   0.0082
 -14.500  -1.7957   0.04816   0.04374   0.0127   0.6918   0.0083
 -14.000  -1.7956   0.04409   0.03952   0.0168   0.6903   0.0085
 -13.500  -1.7905   0.04064   0.03592   0.0212   0.6886   0.0086
 -13.000  -1.7812   0.03769   0.03282   0.0257   0.6871   0.0088
 -12.500  -1.7671   0.03515   0.03014   0.0301   0.6857   0.0090
 -12.000  -1.7487   0.03294   0.02780   0.0343   0.6845   0.0091
 -11.500  -1.7266   0.03103   0.02577   0.0384   0.6832   0.0093
 -11.000  -1.7068   0.02886   0.02345   0.0429   0.6811   0.0095
 -10.500  -1.6839   0.02683   0.02129   0.0473   0.6788   0.0101
 -10.000  -1.6539   0.02534   0.01972   0.0510   0.6768   0.0105
  -9.500  -1.6210   0.02404   0.01834   0.0544   0.6748   0.0109
  -9.000  -1.5855   0.02289   0.01711   0.0575   0.6726   0.0113
  -8.500  -1.5480   0.02188   0.01604   0.0604   0.6698   0.0117
  -8.000  -1.5099   0.02079   0.01486   0.0634   0.6665   0.0122
  -7.500  -1.4704   0.01968   0.01370   0.0662   0.6632   0.0131
  -7.000  -1.4287   0.01882   0.01279   0.0686   0.6595   0.0138
  -6.500  -1.3856   0.01805   0.01198   0.0710   0.6560   0.0145
  -6.000  -1.3418   0.01727   0.01115   0.0732   0.6516   0.0152
  -5.500  -1.2972   0.01648   0.01033   0.0754   0.6466   0.0166
  -5.000  -1.2514   0.01585   0.00968   0.0773   0.6423   0.0177
  -4.500  -1.2054   0.01518   0.00898   0.0793   0.6366   0.0192
  -4.000  -1.1590   0.01456   0.00835   0.0813   0.6298   0.0210
  -3.500  -1.1121   0.01400   0.00777   0.0831   0.6241   0.0225
  -3.000  -1.0652   0.01342   0.00719   0.0850   0.6165   0.0254
  -2.500  -1.0180   0.01288   0.00666   0.0868   0.6090   0.0285
  -2.000  -0.9706   0.01240   0.00616   0.0886   0.6000   0.0314
  -1.500  -0.9237   0.01187   0.00566   0.0905   0.5913   0.0369
  -1.000  -0.8770   0.01138   0.00518   0.0924   0.5804   0.0436
  -0.500  -0.8305   0.01089   0.00473   0.0944   0.5708   0.0519
  -0.000  -0.7845   0.01043   0.00430   0.0965   0.5594   0.0627
   0.500  -0.7428   0.00998   0.00390   0.0995   0.5472   0.0788
   1.000  -0.7002   0.00957   0.00356   0.1024   0.5361   0.0975
   1.500  -0.6552   0.00913   0.00322   0.1047   0.5238   0.1258
   2.000  -0.6094   0.00871   0.00291   0.1069   0.5102   0.1605
   2.500  -0.5639   0.00824   0.00260   0.1091   0.4983   0.2091
   3.000  -0.5182   0.00775   0.00231   0.1112   0.4865   0.2705
   3.500  -0.4736   0.00715   0.00200   0.1134   0.4738   0.3624
