  
       XFOIL         Version 6.99
  
 Calculated polar for: NACA 0012                                       
  
 1 1 Reynolds number fixed          Mach number fixed         
  
 xtrf =   1.000 (top)        1.000 (bottom)  
 Mach =   0.000     Re =     1.521 e 6     Ncrit =   9.000
  
   alpha    CL        CD       CDp       CM     Top_Xtr  Bot_Xtr
  ------ -------- --------- --------- -------- -------- --------
 -12.000  -0.8828   0.01295   0.00736  -0.0661   0.8372   0.0225
 -11.500  -0.8312   0.01213   0.00651  -0.0660   0.8352   0.0251
 -11.000  -0.7777   0.01155   0.00587  -0.0660   0.8333   0.0274
 -10.500  -0.7239   0.01096   0.00528  -0.0662   0.8317   0.0309
 -10.000  -0.6697   0.01040   0.00470  -0.0663   0.8303   0.0352
  -9.500  -0.6148   0.00990   0.00420  -0.0664   0.8291   0.0406
  -9.000  -0.5595   0.00943   0.00375  -0.0667   0.8280   0.0479
  -8.500  -0.5038   0.00899   0.00334  -0.0669   0.8272   0.0578
  -8.000  -0.4478   0.00858   0.00298  -0.0672   0.8264   0.0708
  -7.500  -0.3916   0.00815   0.00264  -0.0675   0.8258   0.0909
  -7.000  -0.3352   0.00774   0.00235  -0.0678   0.8252   0.1167
  -6.500  -0.2785   0.00736   0.00209  -0.0682   0.8245   0.1490
  -6.000  -0.2220   0.00699   0.00187  -0.0685   0.8206   0.1883
  -5.500  -0.1652   0.00662   0.00165  -0.0687   0.8169   0.2301
  -5.000  -0.1081   0.00630   0.00148  -0.0690   0.8135   0.2753
  -4.500  -0.0509   0.00602   0.00135  -0.0693   0.8099   0.3196
  -4.000   0.0066   0.00583   0.00126  -0.0696   0.8055   0.3626
  -3.500   0.0643   0.00561   0.00119  -0.0699   0.8019   0.4044
  -3.000   0.1222   0.00542   0.00113  -0.0702   0.7971   0.4434
  -2.500   0.1798   0.00529   0.00108  -0.0704   0.7904   0.4792
  -2.000   0.2376   0.00516   0.00106  -0.0706   0.7827   0.5128
  -1.500   0.2950   0.00507   0.00104  -0.0706   0.7715   0.5436
  -1.000   0.3523   0.00499   0.00104  -0.0706   0.7541   0.5712
  -0.500   0.4001   0.00562   0.00118  -0.0688   0.5930   0.5951
  -0.000   0.4505   0.00621   0.00144  -0.0677   0.4933   0.6158
