  
       XFOIL         Version 6.99
  
 Calculated polar for: NACA 0012                                       
  
 1 1 Reynolds number fixed          Mach number fixed         
  
 xtrf =   1.000 (top)        1.000 (bottom)  
 Mach =   0.000     Re =     2.332 e 6     Ncrit =   9.000
  
   alpha    CL        CD       CDp       CM     Top_Xtr  Bot_Xtr
  ------ -------- --------- --------- -------- -------- --------
 -12.000  -0.7521   0.01082   0.00541  -0.0854   0.7814   0.0232
 -11.500  -0.6974   0.01030   0.00487  -0.0857   0.7817   0.0257
 -11.000  -0.6420   0.00986   0.00443  -0.0861   0.7820   0.0281
 -10.500  -0.5865   0.00939   0.00397  -0.0865   0.7824   0.0326
 -10.000  -0.5305   0.00897   0.00357  -0.0868   0.7827   0.0377
  -9.500  -0.4742   0.00858   0.00321  -0.0873   0.7831   0.0443
  -9.000  -0.4175   0.00821   0.00288  -0.0877   0.7836   0.0531
  -8.500  -0.3606   0.00787   0.00259  -0.0882   0.7840   0.0646
  -8.000  -0.3036   0.00750   0.00232  -0.0886   0.7844   0.0817
  -7.500  -0.2464   0.00717   0.00208  -0.0891   0.7849   0.1032
  -7.000  -0.1890   0.00685   0.00187  -0.0896   0.7852   0.1308
  -6.500  -0.1316   0.00649   0.00165  -0.0900   0.7835   0.1642
  -6.000  -0.0740   0.00616   0.00145  -0.0904   0.7806   0.2008
  -5.500  -0.0163   0.00586   0.00129  -0.0909   0.7785   0.2419
  -5.000   0.0416   0.00561   0.00117  -0.0913   0.7762   0.2815
  -4.500   0.0996   0.00543   0.00108  -0.0917   0.7731   0.3198
  -4.000   0.1577   0.00526   0.00104  -0.0921   0.7700   0.3593
  -3.500   0.2161   0.00505   0.00096  -0.0925   0.7675   0.3965
  -3.000   0.2745   0.00488   0.00091  -0.0929   0.7631   0.4300
  -2.500   0.3325   0.00478   0.00087  -0.0931   0.7557   0.4610
  -2.000   0.3909   0.00465   0.00085  -0.0935   0.7463   0.4906
  -1.500   0.4409   0.00514   0.00097  -0.0922   0.6131   0.5175
  -1.000   0.4888   0.00587   0.00128  -0.0906   0.4871   0.5403
  -0.500   0.5398   0.00632   0.00150  -0.0896   0.4084   0.5629
  -0.000   0.5906   0.00678   0.00174  -0.0885   0.3378   0.5833
