  
       XFOIL         Version 6.99
  
 Calculated polar for: NACA 0012                                       
  
 1 1 Reynolds number fixed          Mach number fixed         
  
 xtrf =   1.000 (top)        1.000 (bottom)  
 Mach =   0.000     Re =     1.521 e 6     Ncrit =   9.000
  
   alpha    CL        CD       CDp       CM     Top_Xtr  Bot_Xtr
  ------ -------- --------- --------- -------- -------- --------
 -12.000  -0.1025   0.02564   0.02105  -0.1805   0.7761   0.0599
 -11.500  -0.0616   0.02637   0.02181  -0.1791   0.7765   0.0712
 -11.000  -0.0196   0.02706   0.02253  -0.1778   0.7772   0.0857
 -10.500   0.0235   0.02772   0.02325  -0.1765   0.7779   0.1045
 -10.000   0.0682   0.02835   0.02395  -0.1755   0.7789   0.1273
  -9.500   0.1154   0.02894   0.02463  -0.1748   0.7802   0.1570
  -9.000   0.1666   0.02954   0.02533  -0.1746   0.7818   0.1883
  -8.500   0.2377   0.03046   0.02637  -0.1772   0.7846   0.2271
  -7.500   0.3585   0.03257   0.02868  -0.1791   0.7858   0.2975
  -7.000   0.4030   0.03274   0.02893  -0.1776   0.7856   0.3267
  -6.500   0.4128   0.03204   0.02828  -0.1709   0.7828   0.3460
  -6.000   0.4541   0.03223   0.02854  -0.1687   0.7800   0.3726
  -5.500   0.5116   0.03208   0.02848  -0.1688   0.7768   0.3992
  -5.000   0.6476   0.02693   0.02342  -0.1789   0.7589   0.4346
  -4.500   0.9622   0.00973   0.00579  -0.2188   0.7343   0.4800
  -4.000   1.0334   0.00820   0.00422  -0.2213   0.7347   0.4972
  -3.500   1.0935   0.00733   0.00336  -0.2217   0.7263   0.5121
  -3.000   1.0359   0.01044   0.00582  -0.1993   0.5165   0.5199
  -2.500   0.9823   0.01755   0.01275  -0.1829   0.4404   0.5269
  -2.000   0.9736   0.02103   0.01594  -0.1729   0.3659   0.5368
  -1.500   0.9906   0.02270   0.01730  -0.1665   0.2967   0.5470
  -1.000   1.0186   0.02379   0.01811  -0.1617   0.2324   0.5580
  -0.500   1.0528   0.02460   0.01865  -0.1579   0.1775   0.5678
  -0.000   1.0907   0.02524   0.01907  -0.1545   0.1335   0.5775
