  
       XFOIL         Version 6.99
  
 Calculated polar for: NACA 2412                                       
  
 1 1 Reynolds number fixed          Mach number fixed         
  
 xtrf =   1.000 (top)        1.000 (bottom)  
 Mach =   0.000     Re =     2.332 e 6     Ncrit =   9.000
  
   alpha    CL        CD       CDp       CM     Top_Xtr  Bot_Xtr
  ------ -------- --------- --------- -------- -------- --------
  -4.500   0.7187   0.00632   0.00221  -0.2012   0.7573   0.3141
  -4.000   0.7773   0.00605   0.00205  -0.2017   0.7551   0.3547
  -3.500   0.8358   0.00582   0.00192  -0.2022   0.7523   0.3960
  -3.000   0.8938   0.00556   0.00176  -0.2025   0.7478   0.4417
  -2.500   0.9511   0.00542   0.00172  -0.2027   0.7429   0.4841
  -2.000   1.0086   0.00519   0.00159  -0.2028   0.7337   0.5174
  -1.500   1.0292   0.00671   0.00242  -0.1955   0.5524   0.5390
  -1.000   1.0606   0.00760   0.00303  -0.1905   0.4789   0.5582
  -0.500   1.0888   0.00827   0.00356  -0.1848   0.4335   0.5750
   0.000   1.1167   0.00909   0.00425  -0.1791   0.3923   0.5895
   0.500   1.1429   0.01018   0.00518  -0.1736   0.3462   0.6017
   1.500   1.1972   0.01279   0.00737  -0.1635   0.2448   0.6222
   2.000   1.2277   0.01404   0.00838  -0.1591   0.1940   0.6302
   2.500   1.2603   0.01523   0.00935  -0.1552   0.1475   0.6383
   3.000   1.2952   0.01633   0.01023  -0.1517   0.1090   0.6449
   3.500   1.3321   0.01734   0.01110  -0.1485   0.0820   0.6510
   4.000   1.3700   0.01831   0.01196  -0.1455   0.0634   0.6570
   4.500   1.4087   0.01922   0.01281  -0.1427   0.0503   0.6621
   5.000   1.4471   0.02017   0.01371  -0.1399   0.0411   0.6657
   5.500   1.4848   0.02116   0.01466  -0.1370   0.0344   0.6692
   6.000   1.5222   0.02215   0.01563  -0.1342   0.0295   0.6725
   6.500   1.5587   0.02320   0.01667  -0.1312   0.0252   0.6749
   7.000   1.5940   0.02433   0.01780  -0.1281   0.0225   0.6772
   7.500   1.6287   0.02547   0.01898  -0.1250   0.0203   0.6796
   8.000   1.6620   0.02672   0.02023  -0.1218   0.0183   0.6824
   8.500   1.6939   0.02807   0.02163  -0.1185   0.0168   0.6843
   9.000   1.7248   0.02948   0.02308  -0.1151   0.0155   0.6861
   9.500   1.7523   0.03114   0.02479  -0.1114   0.0141   0.6881
  10.000   1.7808   0.03274   0.02646  -0.1080   0.0135   0.6903
  10.500   1.8073   0.03451   0.02828  -0.1043   0.0126   0.6924
  11.000   1.8275   0.03676   0.03060  -0.1001   0.0116   0.6938
  11.500   1.8511   0.03879   0.03273  -0.0965   0.0111   0.6957
  12.000   1.8713   0.04112   0.03515  -0.0927   0.0107   0.6976
  12.500   1.8901   0.04360   0.03770  -0.0889   0.0102   0.6991
  13.000   1.9031   0.04666   0.04086  -0.0848   0.0096   0.7005
  13.500   1.9089   0.05049   0.04484  -0.0804   0.0090   0.7021
  14.000   1.9209   0.05386   0.04832  -0.0769   0.0089   0.7035
  14.500   1.9289   0.05775   0.05234  -0.0735   0.0087   0.7048
  15.000   1.9325   0.06232   0.05705  -0.0704   0.0084   0.7059
