  
       XFOIL         Version 6.99
  
 Calculated polar for: NACA 2412                                       
  
 1 1 Reynolds number fixed          Mach number fixed         
  
 xtrf =   1.000 (top)        1.000 (bottom)  
 Mach =   0.000     Re =     2.332 e 6     Ncrit =   9.000
  
   alpha    CL        CD       CDp       CM     Top_Xtr  Bot_Xtr
  ------ -------- --------- --------- -------- -------- --------
  -5.000  -0.7575   0.00995   0.00399   0.0120   0.6870   0.0285
  -4.500  -0.7034   0.00951   0.00357   0.0125   0.6817   0.0332
  -4.000  -0.6486   0.00910   0.00319   0.0129   0.6748   0.0385
  -3.500  -0.5937   0.00874   0.00285   0.0132   0.6668   0.0456
  -3.000  -0.5385   0.00840   0.00254   0.0135   0.6568   0.0543
  -2.500  -0.4833   0.00806   0.00226   0.0138   0.6459   0.0676
  -2.000  -0.4280   0.00775   0.00200   0.0141   0.6328   0.0847
  -1.500  -0.3727   0.00745   0.00177   0.0144   0.6178   0.1075
  -1.000  -0.3174   0.00717   0.00157   0.0146   0.6013   0.1376
  -0.500  -0.2620   0.00691   0.00140   0.0148   0.5836   0.1747
   0.000  -0.2068   0.00664   0.00125   0.0151   0.5648   0.2221
   0.500  -0.1515   0.00639   0.00113   0.0153   0.5453   0.2778
   1.000  -0.0966   0.00611   0.00103   0.0155   0.5256   0.3483
   1.500  -0.0431   0.00568   0.00092   0.0159   0.5059   0.4693
   2.000   0.0058   0.00474   0.00077   0.0171   0.4878   0.7368
   2.500   0.0636   0.00479   0.00082   0.0169   0.4693   0.7622
   3.000   0.1216   0.00488   0.00086   0.0166   0.4512   0.7732
   3.500   0.1798   0.00500   0.00092   0.0163   0.4321   0.7812
   4.000   0.2378   0.00512   0.00098   0.0160   0.4113   0.7870
   4.500   0.2954   0.00528   0.00107   0.0157   0.3858   0.7929
   5.000   0.3529   0.00551   0.00119   0.0154   0.3553   0.7987
   5.500   0.4098   0.00575   0.00133   0.0152   0.3215   0.8050
   6.000   0.4663   0.00604   0.00151   0.0150   0.2847   0.8108
   6.500   0.5223   0.00644   0.00174   0.0148   0.2419   0.8124
   7.000   0.5779   0.00688   0.00200   0.0146   0.1982   0.8128
   7.500   0.6331   0.00737   0.00231   0.0144   0.1569   0.8133
   8.000   0.6876   0.00791   0.00267   0.0144   0.1195   0.8138
   8.500   0.7420   0.00843   0.00306   0.0143   0.0912   0.8145
   9.000   0.7960   0.00896   0.00348   0.0143   0.0695   0.8154
   9.500   0.8498   0.00949   0.00393   0.0143   0.0549   0.8162
  10.000   0.9032   0.01002   0.00440   0.0143   0.0439   0.8172
  11.000   1.0087   0.01107   0.00543   0.0145   0.0311   0.8229
  11.500   1.0602   0.01167   0.00604   0.0148   0.0267   0.8265
  12.000   1.1116   0.01223   0.00661   0.0150   0.0241   0.8307
  13.000   1.2106   0.01356   0.00802   0.0158   0.0193   0.8458
  13.500   1.2585   0.01426   0.00881   0.0165   0.0179   0.8594
  14.000   1.3045   0.01498   0.00964   0.0173   0.0164   0.8832
  14.500   1.3452   0.01580   0.01066   0.0191   0.0151   0.9339
  15.000   1.3925   0.01660   0.01161   0.0194   0.0143   1.0001
