  
       XFOIL         Version 6.99
  
 Calculated polar for: NACA 0012                                       
  
 1 1 Reynolds number fixed          Mach number fixed         
  
 xtrf =   1.000 (top)        1.000 (bottom)  
 Mach =   0.000     Re =     1.521 e 6     Ncrit =   9.000
  
   alpha    CL        CD       CDp       CM     Top_Xtr  Bot_Xtr
  ------ -------- --------- --------- -------- -------- --------
 -12.000  -1.6055   0.02633   0.02100   0.0350   0.9999   0.0130
 -11.500  -1.5835   0.02434   0.01891   0.0390   0.9999   0.0137
 -11.000  -1.5550   0.02283   0.01733   0.0425   0.9999   0.0144
 -10.500  -1.5236   0.02152   0.01593   0.0457   0.9999   0.0150
 -10.000  -1.4898   0.02037   0.01469   0.0489   0.9999   0.0155
  -9.500  -1.4623   0.01942   0.01321   0.0533   0.7536   0.0169
  -9.000  -1.4249   0.01852   0.01218   0.0561   0.7361   0.0180
  -8.500  -1.3853   0.01773   0.01128   0.0587   0.7293   0.0188
  -8.000  -1.3477   0.01669   0.01017   0.0618   0.7235   0.0208
  -7.500  -1.3060   0.01599   0.00941   0.0642   0.7188   0.0223
  -7.000  -1.2665   0.01524   0.00861   0.0672   0.7142   0.0247
  -6.500  -1.2221   0.01469   0.00801   0.0693   0.7095   0.0269
  -6.000  -1.1771   0.01402   0.00732   0.0713   0.7051   0.0307
  -5.500  -1.1302   0.01343   0.00672   0.0730   0.7007   0.0351
  -5.000  -1.0825   0.01286   0.00617   0.0746   0.6956   0.0408
  -4.500  -1.0340   0.01228   0.00563   0.0761   0.6909   0.0486
  -4.000  -0.9851   0.01171   0.00512   0.0775   0.6860   0.0596
  -3.500  -0.9357   0.01114   0.00463   0.0788   0.6808   0.0748
  -3.000  -0.8861   0.01055   0.00416   0.0801   0.6747   0.0960
  -2.500  -0.8368   0.00994   0.00371   0.0815   0.6680   0.1280
  -2.000  -0.7875   0.00933   0.00328   0.0828   0.6598   0.1688
  -1.500  -0.7384   0.00872   0.00290   0.0842   0.6501   0.2194
  -1.000  -0.6894   0.00811   0.00254   0.0856   0.6392   0.2794
  -0.500  -0.6403   0.00755   0.00221   0.0870   0.6258   0.3450
