  
       XFOIL         Version 6.99
  
 Calculated polar for: NACA 0012                                       
  
 1 1 Reynolds number fixed          Mach number fixed         
  
 xtrf =   1.000 (top)        1.000 (bottom)  
 Mach =   0.000     Re =     2.332 e 6     Ncrit =   9.000
  
   alpha    CL        CD       CDp       CM     Top_Xtr  Bot_Xtr
  ------ -------- --------- --------- -------- -------- --------
 -12.000  -0.2486   0.01034   0.00524  -0.1603   0.7454   0.0408
 -11.500  -0.1917   0.01008   0.00502  -0.1611   0.7461   0.0481
 -11.000  -0.1347   0.00983   0.00483  -0.1619   0.7468   0.0590
 -10.500  -0.0776   0.00961   0.00468  -0.1626   0.7476   0.0729
 -10.000  -0.0203   0.00944   0.00459  -0.1634   0.7483   0.0892
  -9.500   0.0369   0.00925   0.00451  -0.1641   0.7490   0.1131
  -9.000   0.0941   0.00911   0.00448  -0.1647   0.7497   0.1409
  -8.500   0.1513   0.00900   0.00449  -0.1653   0.7505   0.1721
  -8.000   0.2085   0.00893   0.00455  -0.1659   0.7512   0.2061
  -7.500   0.2657   0.00889   0.00462  -0.1664   0.7517   0.2408
  -7.000   0.3267   0.00825   0.00404  -0.1674   0.7489   0.2748
  -6.500   0.3883   0.00747   0.00328  -0.1683   0.7446   0.3096
  -6.000   0.4480   0.00713   0.00298  -0.1690   0.7424   0.3413
  -4.500   0.6281   0.00594   0.00200  -0.1711   0.7442   0.4240
  -4.000   0.6859   0.00585   0.00196  -0.1713   0.7394   0.4476
  -3.500   0.7445   0.00549   0.00166  -0.1716   0.7344   0.4687
  -3.000   0.8027   0.00524   0.00147  -0.1718   0.7248   0.4890
  -2.500   0.8192   0.00722   0.00251  -0.1640   0.4643   0.5041
  -2.000   0.8502   0.00813   0.00310  -0.1590   0.3738   0.5197
  -1.500   0.8718   0.00897   0.00371  -0.1520   0.3054   0.5340
  -1.000   0.8981   0.00998   0.00451  -0.1463   0.2471   0.5475
  -0.500   0.9295   0.01100   0.00536  -0.1418   0.1991   0.5598
  -0.000   0.9634   0.01202   0.00621  -0.1379   0.1540   0.5722
