  
       XFOIL         Version 6.99
  
 Calculated polar for: NACA 2412                                       
  
 1 1 Reynolds number fixed          Mach number fixed         
  
 xtrf =   1.000 (top)        1.000 (bottom)  
 Mach =   0.000     Re =     2.332 e 6     Ncrit =   9.000
  
   alpha    CL        CD       CDp       CM     Top_Xtr  Bot_Xtr
  ------ -------- --------- --------- -------- -------- --------
 -15.000  -0.1524   0.01333   0.00876  -0.2338   0.7484   0.0213
 -14.500  -0.0946   0.01295   0.00834  -0.2352   0.7489   0.0224
 -14.000  -0.0370   0.01249   0.00787  -0.2366   0.7495   0.0250
 -13.500   0.0195   0.01236   0.00774  -0.2376   0.7504   0.0267
 -13.000   0.0758   0.01224   0.00764  -0.2386   0.7515   0.0304
 -12.500   0.1313   0.01227   0.00768  -0.2393   0.7526   0.0340
 -12.000   0.1861   0.01237   0.00781  -0.2398   0.7536   0.0377
 -11.500   0.2410   0.01244   0.00793  -0.2403   0.7546   0.0436
 -11.000   0.2957   0.01255   0.00808  -0.2407   0.7554   0.0510
 -10.500   0.3500   0.01272   0.00830  -0.2409   0.7563   0.0601
 -10.000   0.4037   0.01296   0.00860  -0.2410   0.7571   0.0724
  -9.500   0.4601   0.01291   0.00862  -0.2415   0.7572   0.0896
  -9.000   0.5232   0.01224   0.00798  -0.2431   0.7554   0.1087
  -8.500   0.5855   0.01167   0.00746  -0.2446   0.7538   0.1352
  -8.000   0.6486   0.01108   0.00693  -0.2462   0.7523   0.1644
  -7.500   0.7112   0.01044   0.00633  -0.2476   0.7504   0.1962
  -7.000   0.7733   0.01001   0.00592  -0.2489   0.7486   0.2292
  -6.500   0.8292   0.01021   0.00620  -0.2491   0.7472   0.2608
  -5.500   0.9442   0.00989   0.00606  -0.2499   0.7450   0.3293
  -5.000   1.0086   0.00906   0.00530  -0.2515   0.7440   0.3643
  -4.500   1.0731   0.00839   0.00468  -0.2532   0.7452   0.4007
  -4.000   1.1360   0.00774   0.00408  -0.2545   0.7453   0.4374
  -3.500   1.1963   0.00692   0.00333  -0.2552   0.7418   0.4718
  -3.000   1.2538   0.00633   0.00272  -0.2553   0.7336   0.4983
  -2.500   1.2572   0.00764   0.00357  -0.2443   0.5916   0.5149
  -2.000   1.2178   0.01059   0.00622  -0.2258   0.5049   0.5268
  -1.500   1.2042   0.01471   0.01026  -0.2147   0.4570   0.5395
  -1.000   1.2054   0.01819   0.01360  -0.2063   0.4156   0.5507
  -0.500   1.2193   0.02047   0.01575  -0.1996   0.3737   0.5632
  -0.000   1.2384   0.02225   0.01732  -0.1936   0.3240   0.5743
   0.500   1.2636   0.02364   0.01846  -0.1885   0.2711   0.5837
   1.000   1.2927   0.02477   0.01930  -0.1839   0.2137   0.5936
   1.500   1.3254   0.02573   0.01999  -0.1800   0.1644   0.6015
   2.000   1.3597   0.02665   0.02068  -0.1762   0.1207   0.6095
   2.500   1.3963   0.02751   0.02137  -0.1729   0.0897   0.6165
   3.000   1.4337   0.02836   0.02209  -0.1698   0.0680   0.6225
   3.500   1.4715   0.02922   0.02287  -0.1668   0.0530   0.6287
   4.000   1.5093   0.03012   0.02370  -0.1638   0.0422   0.6341
   4.500   1.5470   0.03104   0.02457  -0.1609   0.0345   0.6392
   5.000   1.5839   0.03200   0.02552  -0.1579   0.0292   0.6434
   5.500   1.6201   0.03304   0.02656  -0.1548   0.0259   0.6472
   6.000   1.6551   0.03418   0.02771  -0.1517   0.0228   0.6507
   6.500   1.6885   0.03542   0.02895  -0.1483   0.0197   0.6536
   7.000   1.7225   0.03661   0.03018  -0.1451   0.0183   0.6563
   7.500   1.7531   0.03803   0.03162  -0.1415   0.0162   0.6585
   8.000   1.7854   0.03936   0.03300  -0.1382   0.0153   0.6613
   8.500   1.8136   0.04100   0.03467  -0.1345   0.0140   0.6640
   9.000   1.8386   0.04289   0.03662  -0.1304   0.0129   0.6660
   9.500   1.8656   0.04462   0.03843  -0.1267   0.0123   0.6676
  10.000   1.8903   0.04656   0.04043  -0.1229   0.0116   0.6690
  10.500   1.9082   0.04909   0.04303  -0.1184   0.0107   0.6704
  11.000   1.9269   0.05158   0.04562  -0.1142   0.0102   0.6723
  11.500   1.9469   0.05398   0.04811  -0.1103   0.0099   0.6744
  12.000   1.9609   0.05700   0.05123  -0.1060   0.0094   0.6763
  12.500   1.9746   0.06010   0.05441  -0.1019   0.0090   0.6774
  13.000   1.9789   0.06419   0.05863  -0.0974   0.0085   0.6783
  13.500   1.9774   0.06903   0.06364  -0.0930   0.0080   0.6793
  14.000   1.9822   0.07346   0.06820  -0.0896   0.0079   0.6804
  14.500   1.9812   0.07884   0.07373  -0.0866   0.0078   0.6816
  15.000   1.9763   0.08499   0.08005  -0.0844   0.0076   0.6830
  15.500   1.9675   0.09195   0.08718  -0.0830   0.0074   0.6845
  16.000   1.9548   0.09970   0.09511  -0.0827   0.0072   0.6856
  16.500   1.9386   0.10813   0.10373  -0.0834   0.0071   0.6862
  17.000   1.9179   0.11738   0.11317  -0.0853   0.0069   0.6868
  17.500   1.8956   0.12716   0.12315  -0.0883   0.0068   0.6874
  18.000   1.8693   0.13792   0.13411  -0.0929   0.0066   0.6879
  18.500   1.8402   0.14943   0.14584  -0.0989   0.0064   0.6885
  19.000   1.8077   0.16202   0.15865  -0.1067   0.0063   0.6891
  19.500   1.7696   0.17634   0.17322  -0.1168   0.0062   0.6895
  20.000   1.7328   0.19104   0.18816  -0.1282   0.0061   0.6901
  20.500   1.6934   0.20701   0.20437  -0.1415   0.0061   0.6903
  21.000   1.6648   0.22101   0.21856  -0.1537   0.0060   0.6908
  21.500   1.6374   0.23547   0.23321  -0.1666   0.0060   0.6912
  22.000   1.6177   0.24846   0.24636  -0.1785   0.0059   0.6917
  22.500   1.5980   0.26200   0.26006  -0.1911   0.0059   0.6921
  23.000   1.5848   0.27409   0.27228  -0.2025   0.0057   0.6926
  23.500   1.5745   0.28562   0.28393  -0.2135   0.0055   0.6931
  24.000   1.5664   0.29684   0.29526  -0.2242   0.0054   0.6935
  24.500   1.5594   0.30807   0.30658  -0.2351   0.0051   0.6938
  25.000   1.5534   0.31945   0.31804  -0.2460   0.0049   0.6942
