  
       XFOIL         Version 6.99
  
 Calculated polar for: NACA 2412                                       
  
 1 1 Reynolds number fixed          Mach number fixed         
  
 xtrf =   1.000 (top)        1.000 (bottom)  
 Mach =   0.000     Re =     2.332 e 6     Ncrit =   9.000
  
   alpha    CL        CD       CDp       CM     Top_Xtr  Bot_Xtr
  ------ -------- --------- --------- -------- -------- --------
 -15.000  -0.2906   0.01292   0.00823  -0.2139   0.7474   0.0194
 -14.500  -0.2329   0.01239   0.00766  -0.2153   0.7478   0.0206
 -14.000  -0.1751   0.01188   0.00709  -0.2166   0.7483   0.0221
 -13.500  -0.1175   0.01144   0.00665  -0.2179   0.7489   0.0243
 -13.000  -0.0600   0.01113   0.00631  -0.2190   0.7495   0.0264
 -12.500  -0.0025   0.01086   0.00607  -0.2200   0.7502   0.0294
 -12.000   0.0548   0.01065   0.00587  -0.2210   0.7509   0.0331
 -11.500   0.1121   0.01052   0.00575  -0.2219   0.7516   0.0374
 -11.000   0.1695   0.01043   0.00568  -0.2227   0.7523   0.0423
 -10.500   0.2267   0.01035   0.00564  -0.2235   0.7531   0.0496
 -10.000   0.2838   0.01029   0.00564  -0.2242   0.7538   0.0595
  -9.500   0.3410   0.01023   0.00564  -0.2248   0.7544   0.0726
  -9.000   0.3999   0.00995   0.00542  -0.2257   0.7538   0.0884
  -8.500   0.4599   0.00953   0.00504  -0.2268   0.7524   0.1092
  -8.000   0.5188   0.00926   0.00484  -0.2276   0.7517   0.1325
  -7.500   0.5785   0.00892   0.00456  -0.2285   0.7507   0.1622
  -7.000   0.6384   0.00859   0.00430  -0.2295   0.7497   0.1945
  -6.500   0.6983   0.00830   0.00407  -0.2304   0.7489   0.2278
  -6.000   0.7580   0.00804   0.00389  -0.2312   0.7481   0.2620
  -5.500   0.8182   0.00768   0.00362  -0.2321   0.7485   0.2990
  -5.000   0.8779   0.00736   0.00343  -0.2329   0.7521   0.3335
  -4.500   0.9376   0.00704   0.00319  -0.2337   0.7515   0.3715
  -4.000   0.9976   0.00667   0.00286  -0.2344   0.7489   0.4083
  -3.500   1.0547   0.00664   0.00291  -0.2347   0.7450   0.4476
  -3.000   1.1126   0.00611   0.00249  -0.2348   0.7410   0.4828
  -2.500   1.1690   0.00572   0.00212  -0.2347   0.7320   0.5110
  -2.000   1.1677   0.00762   0.00336  -0.2229   0.5491   0.5275
  -1.500   1.1637   0.00917   0.00466  -0.2108   0.4798   0.5420
  -1.000   1.1735   0.01104   0.00640  -0.2025   0.4350   0.5558
  -0.500   1.1893   0.01320   0.00846  -0.1959   0.3939   0.5695
  -0.000   1.2053   0.01546   0.01054  -0.1896   0.3464   0.5808
   0.500   1.2262   0.01730   0.01217  -0.1839   0.2977   0.5912
   1.000   1.2507   0.01878   0.01343  -0.1787   0.2458   0.6009
   1.500   1.2786   0.02008   0.01447  -0.1740   0.1939   0.6093
   2.000   1.3099   0.02120   0.01535  -0.1699   0.1465   0.6176
   2.500   1.3442   0.02221   0.01616  -0.1662   0.1094   0.6247
   3.000   1.3803   0.02317   0.01695  -0.1629   0.0809   0.6311
   3.500   1.4177   0.02409   0.01777  -0.1598   0.0622   0.6372
   4.000   1.4558   0.02501   0.01860  -0.1569   0.0493   0.6427
   4.500   1.4940   0.02592   0.01948  -0.1540   0.0403   0.6479
   5.000   1.5315   0.02688   0.02040  -0.1511   0.0336   0.6520
   5.500   1.5686   0.02787   0.02138  -0.1481   0.0287   0.6558
   6.000   1.6041   0.02900   0.02249  -0.1450   0.0245   0.6590
   6.500   1.6393   0.03013   0.02364  -0.1420   0.0222   0.6616
   7.000   1.6732   0.03134   0.02487  -0.1387   0.0198   0.6641
   7.500   1.7065   0.03261   0.02615  -0.1355   0.0180   0.6668
   8.000   1.7385   0.03397   0.02756  -0.1321   0.0163   0.6696
   8.500   1.7683   0.03549   0.02912  -0.1286   0.0151   0.6717
   9.000   1.7944   0.03728   0.03095  -0.1246   0.0135   0.6731
   9.500   1.8235   0.03887   0.03261  -0.1212   0.0130   0.6747
  10.000   1.8490   0.04075   0.03455  -0.1174   0.0123   0.6766
  10.500   1.8702   0.04296   0.03682  -0.1132   0.0114   0.6785
  11.000   1.8900   0.04533   0.03928  -0.1090   0.0107   0.6807
  11.500   1.9098   0.04774   0.04179  -0.1051   0.0104   0.6821
  12.000   1.9287   0.05028   0.04442  -0.1012   0.0099   0.6831
  12.500   1.9425   0.05328   0.04752  -0.0971   0.0094   0.6845
  13.000   1.9524   0.05674   0.05108  -0.0929   0.0089   0.6861
  13.500   1.9530   0.06128   0.05577  -0.0883   0.0084   0.6876
  14.000   1.9602   0.06530   0.05992  -0.0848   0.0083   0.6890
  14.500   1.9638   0.06989   0.06465  -0.0815   0.0081   0.6902
  15.000   1.9616   0.07553   0.07045  -0.0789   0.0079   0.6912
  15.500   1.9561   0.08194   0.07702  -0.0771   0.0077   0.6923
  16.000   1.9462   0.08918   0.08444  -0.0762   0.0075   0.6933
  16.500   1.9309   0.09743   0.09287  -0.0763   0.0073   0.6942
  17.000   1.9115   0.10647   0.10210  -0.0775   0.0072   0.6951
  17.500   1.8868   0.11653   0.11236  -0.0799   0.0070   0.6958
  18.000   1.8579   0.12756   0.12360  -0.0839   0.0068   0.6966
  18.500   1.8259   0.13955   0.13582  -0.0894   0.0067   0.6971
  19.000   1.7896   0.15275   0.14925  -0.0969   0.0065   0.6976
  19.500   1.7498   0.16723   0.16398  -0.1064   0.0064   0.6980
  20.000   1.7215   0.17998   0.17695  -0.1155   0.0064   0.6985
  20.500   1.6900   0.19393   0.19111  -0.1263   0.0063   0.6988
  21.000   1.6586   0.20840   0.20579  -0.1382   0.0063   0.6992
  21.500   1.6281   0.22317   0.22077  -0.1509   0.0063   0.6995
  22.000   1.6013   0.23779   0.23556  -0.1639   0.0062   0.6998
  22.500   1.5818   0.25107   0.24900  -0.1758   0.0061   0.7003
  23.000   1.5665   0.26361   0.26168  -0.1873   0.0060   0.7007
  23.500   1.5543   0.27570   0.27389  -0.1985   0.0058   0.7012
  24.000   1.5454   0.28703   0.28532  -0.2092   0.0056   0.7017
  24.500   1.5382   0.29819   0.29658  -0.2197   0.0054   0.7022
  25.000   1.5325   0.30920   0.30766  -0.2301   0.0051   0.7027
