  
       XFOIL         Version 6.99
  
 Calculated polar for: NACA 2412                                       
  
 1 1 Reynolds number fixed          Mach number fixed         
  
 xtrf =   1.000 (top)        1.000 (bottom)  
 Mach =   0.000     Re =     2.332 e 6     Ncrit =   9.000
  
   alpha    CL        CD       CDp       CM     Top_Xtr  Bot_Xtr
  ------ -------- --------- --------- -------- -------- --------
 -15.000  -0.5708   0.01306   0.00826  -0.1730   0.7620   0.0160
 -14.500  -0.5153   0.01228   0.00743  -0.1741   0.7626   0.0172
 -14.000  -0.4590   0.01170   0.00680  -0.1752   0.7633   0.0182
 -13.500  -0.4025   0.01112   0.00616  -0.1761   0.7639   0.0192
 -13.000  -0.3458   0.01055   0.00557  -0.1771   0.7645   0.0211
 -12.500  -0.2884   0.01019   0.00518  -0.1780   0.7651   0.0223
 -12.000  -0.2312   0.00968   0.00466  -0.1790   0.7657   0.0250
 -11.500  -0.1734   0.00937   0.00433  -0.1798   0.7663   0.0267
 -11.000  -0.1156   0.00899   0.00397  -0.1807   0.7670   0.0305
 -10.500  -0.0576   0.00869   0.00367  -0.1816   0.7676   0.0346
 -10.000   0.0005   0.00843   0.00343  -0.1824   0.7682   0.0394
  -9.500   0.0588   0.00819   0.00322  -0.1832   0.7689   0.0461
  -9.000   0.1171   0.00796   0.00303  -0.1840   0.7692   0.0546
  -8.500   0.1756   0.00768   0.00279  -0.1847   0.7684   0.0662
  -8.000   0.2342   0.00742   0.00257  -0.1855   0.7674   0.0798
  -7.500   0.2929   0.00717   0.00240  -0.1862   0.7667   0.0998
  -7.000   0.3516   0.00695   0.00224  -0.1869   0.7659   0.1216
  -6.500   0.4103   0.00672   0.00211  -0.1876   0.7649   0.1509
  -6.000   0.4690   0.00652   0.00200  -0.1883   0.7637   0.1830
  -5.500   0.5275   0.00638   0.00195  -0.1889   0.7621   0.2175
  -5.000   0.5858   0.00633   0.00200  -0.1895   0.7602   0.2532
  -4.500   0.6442   0.00618   0.00197  -0.1900   0.7586   0.2942
  -4.000   0.7028   0.00592   0.00183  -0.1905   0.7573   0.3343
  -3.500   0.7612   0.00568   0.00171  -0.1910   0.7546   0.3752
  -3.000   0.8194   0.00544   0.00159  -0.1914   0.7508   0.4214
  -2.500   0.8769   0.00530   0.00153  -0.1916   0.7452   0.4691
  -2.000   0.9346   0.00510   0.00147  -0.1918   0.7386   0.5080
  -1.500   0.9687   0.00608   0.00194  -0.1873   0.5909   0.5348
  -1.000   1.0030   0.00703   0.00255  -0.1829   0.5015   0.5566
  -0.500   1.0412   0.00768   0.00301  -0.1792   0.4484   0.5756
  -0.000   1.0780   0.00825   0.00346  -0.1752   0.4075   0.5913
   0.500   1.1044   0.00901   0.00406  -0.1692   0.3631   0.6048
   1.000   1.1343   0.00997   0.00484  -0.1642   0.3146   0.6165
   1.500   1.1634   0.01109   0.00573  -0.1593   0.2633   0.6262
   2.000   1.1944   0.01224   0.00666  -0.1549   0.2115   0.6355
   2.500   1.2280   0.01336   0.00754  -0.1511   0.1643   0.6429
   3.000   1.2625   0.01447   0.00844  -0.1474   0.1224   0.6501
   3.500   1.3001   0.01545   0.00926  -0.1443   0.0920   0.6560
   4.000   1.3380   0.01642   0.01011  -0.1413   0.0697   0.6617
   4.500   1.3767   0.01736   0.01096  -0.1385   0.0550   0.6672
   5.000   1.4156   0.01830   0.01182  -0.1357   0.0435   0.6709
   5.500   1.4539   0.01924   0.01274  -0.1329   0.0363   0.6737
   6.000   1.4917   0.02022   0.01370  -0.1301   0.0307   0.6768
   6.500   1.5294   0.02121   0.01467  -0.1273   0.0268   0.6800
   7.000   1.5657   0.02226   0.01573  -0.1244   0.0238   0.6822
   7.500   1.6007   0.02340   0.01689  -0.1213   0.0211   0.6843
   8.000   1.6353   0.02456   0.01807  -0.1182   0.0192   0.6868
   8.500   1.6670   0.02589   0.01942  -0.1148   0.0173   0.6894
   9.000   1.6994   0.02717   0.02075  -0.1116   0.0161   0.6913
   9.500   1.7266   0.02884   0.02246  -0.1079   0.0144   0.6932
  10.000   1.7568   0.03027   0.02397  -0.1046   0.0139   0.6955
  10.500   1.7831   0.03201   0.02576  -0.1009   0.0131   0.6975
  11.000   1.8068   0.03399   0.02779  -0.0971   0.0121   0.6993
  11.500   1.8281   0.03614   0.03005  -0.0932   0.0114   0.7010
  12.000   1.8513   0.03819   0.03219  -0.0896   0.0110   0.7028
  12.500   1.8695   0.04070   0.03478  -0.0857   0.0105   0.7046
  13.000   1.8855   0.04345   0.03762  -0.0819   0.0099   0.7062
  13.500   1.8939   0.04696   0.04126  -0.0776   0.0093   0.7076
  14.000   1.9042   0.05045   0.04488  -0.0739   0.0090   0.7093
  14.500   1.9135   0.05415   0.04872  -0.0706   0.0088   0.7108
  15.000   1.9189   0.05841   0.05311  -0.0674   0.0086   0.7118
  15.500   1.9203   0.06344   0.05828  -0.0648   0.0083   0.7130
  16.000   1.9168   0.06949   0.06450  -0.0630   0.0081   0.7145
  16.500   1.9078   0.07657   0.07174  -0.0621   0.0079   0.7159
  17.000   1.8922   0.08494   0.08030  -0.0622   0.0076   0.7170
  17.500   1.8666   0.09500   0.09057  -0.0636   0.0074   0.7178
  18.000   1.8315   0.10678   0.10260  -0.0666   0.0071   0.7184
  18.500   1.7994   0.11855   0.11461  -0.0706   0.0070   0.7190
  19.000   1.7735   0.12950   0.12575  -0.0752   0.0070   0.7197
  19.500   1.7431   0.14170   0.13817  -0.0813   0.0070   0.7203
  21.000   1.6455   0.18211   0.17922  -0.1076   0.0068   0.7224
  21.500   1.6097   0.19750   0.19483  -0.1194   0.0068   0.7232
  22.000   1.5752   0.21339   0.21093  -0.1323   0.0067   0.7238
  22.500   1.5457   0.22862   0.22635  -0.1452   0.0066   0.7246
  23.000   1.5238   0.24262   0.24051  -0.1572   0.0065   0.7253
  23.500   1.5081   0.25541   0.25343  -0.1684   0.0063   0.7262
  24.000   1.4958   0.26777   0.26590  -0.1794   0.0062   0.7274
  24.500   1.4868   0.27942   0.27766  -0.1899   0.0060   0.7288
  25.000   1.4807   0.29044   0.28877  -0.1998   0.0057   0.7303
