  
       XFOIL         Version 6.99
  
 Calculated polar for: NACA 2412                                       
  
 1 1 Reynolds number fixed          Mach number fixed         
  
 xtrf =   1.000 (top)        1.000 (bottom)  
 Mach =   0.000     Re =     1.521 e 6     Ncrit =   9.000
  
   alpha    CL        CD       CDp       CM     Top_Xtr  Bot_Xtr
  ------ -------- --------- --------- -------- -------- --------
 -15.000  -0.5668   0.01560   0.01072  -0.1719   0.7742   0.0180
 -14.500  -0.5118   0.01488   0.00989  -0.1732   0.7745   0.0186
 -14.000  -0.4578   0.01373   0.00864  -0.1745   0.7747   0.0202
 -13.500  -0.4021   0.01315   0.00799  -0.1756   0.7750   0.0216
 -13.000  -0.3455   0.01241   0.00716  -0.1767   0.7757   0.0231
 -12.500  -0.2887   0.01175   0.00647  -0.1777   0.7765   0.0253
 -12.000  -0.2314   0.01121   0.00586  -0.1787   0.7773   0.0272
 -11.500  -0.1740   0.01068   0.00532  -0.1796   0.7781   0.0303
 -11.000  -0.1164   0.01024   0.00486  -0.1805   0.7790   0.0339
 -10.500  -0.0586   0.00991   0.00452  -0.1814   0.7798   0.0376
 -10.000  -0.0007   0.00960   0.00423  -0.1822   0.7806   0.0431
  -9.500   0.0572   0.00932   0.00398  -0.1830   0.7815   0.0504
  -9.000   0.1151   0.00908   0.00379  -0.1838   0.7823   0.0605
  -8.500   0.1731   0.00885   0.00364  -0.1846   0.7830   0.0742
  -8.000   0.2314   0.00858   0.00343  -0.1853   0.7824   0.0915
  -7.500   0.2900   0.00829   0.00319  -0.1860   0.7810   0.1146
  -7.000   0.3485   0.00805   0.00303  -0.1867   0.7801   0.1419
  -6.500   0.4070   0.00784   0.00292  -0.1874   0.7792   0.1740
  -6.000   0.4655   0.00767   0.00285  -0.1881   0.7781   0.2101
  -5.500   0.5235   0.00759   0.00288  -0.1886   0.7766   0.2493
  -4.500   0.6395   0.00735   0.00288  -0.1896   0.7740   0.3312
  -4.000   0.6980   0.00708   0.00274  -0.1901   0.7723   0.3754
  -3.500   0.7562   0.00683   0.00262  -0.1904   0.7697   0.4230
  -3.000   0.8146   0.00655   0.00247  -0.1908   0.7659   0.4734
  -2.500   0.8728   0.00637   0.00235  -0.1911   0.7612   0.5139
  -2.000   0.9297   0.00620   0.00229  -0.1911   0.7561   0.5449
  -1.500   0.9863   0.00595   0.00210  -0.1909   0.7473   0.5692
  -1.000   1.0425   0.00581   0.00206  -0.1907   0.7224   0.5883
  -0.500   1.0472   0.00772   0.00310  -0.1802   0.5289   0.6016
  -0.000   1.0756   0.00858   0.00374  -0.1746   0.4702   0.6140
   0.500   1.1001   0.00941   0.00440  -0.1682   0.4285   0.6252
   1.000   1.1306   0.01035   0.00521  -0.1633   0.3857   0.6351
   1.500   1.1584   0.01154   0.00619  -0.1582   0.3358   0.6434
   2.000   1.1864   0.01285   0.00725  -0.1534   0.2817   0.6508
   2.500   1.2163   0.01415   0.00828  -0.1490   0.2264   0.6574
   3.000   1.2481   0.01542   0.00928  -0.1449   0.1732   0.6626
   3.500   1.2820   0.01663   0.01024  -0.1413   0.1290   0.6685
   4.000   1.3174   0.01777   0.01119  -0.1379   0.0944   0.6729
   4.500   1.3541   0.01887   0.01215  -0.1348   0.0709   0.6770
   5.000   1.3917   0.01989   0.01309  -0.1319   0.0562   0.6811
   5.500   1.4290   0.02094   0.01407  -0.1290   0.0450   0.6838
   6.000   1.4655   0.02203   0.01514  -0.1261   0.0370   0.6874
   6.500   1.5016   0.02314   0.01623  -0.1231   0.0321   0.6907
   7.000   1.5377   0.02423   0.01737  -0.1202   0.0282   0.6936
   7.500   1.5711   0.02551   0.01866  -0.1170   0.0249   0.6969
   8.000   1.6034   0.02683   0.02001  -0.1137   0.0223   0.6998
   8.500   1.6350   0.02822   0.02147  -0.1104   0.0205   0.7027
   9.000   1.6642   0.02977   0.02306  -0.1070   0.0187   0.7055
   9.500   1.6915   0.03146   0.02484  -0.1034   0.0172   0.7083
  10.000   1.7184   0.03321   0.02669  -0.0998   0.0162   0.7108
  10.500   1.7418   0.03525   0.02880  -0.0960   0.0151   0.7134
  11.000   1.7606   0.03768   0.03136  -0.0919   0.0142   0.7157
  11.500   1.7823   0.03993   0.03373  -0.0883   0.0136   0.7181
  12.000   1.8007   0.04251   0.03642  -0.0845   0.0129   0.7205
  12.500   1.8133   0.04565   0.03967  -0.0805   0.0122   0.7230
  13.000   1.8184   0.04964   0.04382  -0.0762   0.0115   0.7253
  13.500   1.8301   0.05315   0.04748  -0.0729   0.0112   0.7281
  14.000   1.8367   0.05731   0.05180  -0.0697   0.0109   0.7310
  15.000   1.8364   0.06815   0.06300  -0.0649   0.0102   0.7402
  15.500   1.8286   0.07522   0.07033  -0.0640   0.0099   0.7684
  16.000   1.8103   0.08358   0.07921  -0.0637   0.0096   0.9998
  16.500   1.7793   0.09479   0.09068  -0.0655   0.0093   0.9998
  17.000   1.7462   0.10663   0.10278  -0.0685   0.0091   0.9998
  17.500   1.7227   0.11734   0.11371  -0.0721   0.0091   0.9998
  18.000   1.6962   0.12877   0.12536  -0.0768   0.0090   0.9998
  18.500   1.6682   0.14090   0.13772  -0.0828   0.0089   0.9998
  19.000   1.6410   0.15331   0.15035  -0.0898   0.0088   0.9998
  19.500   1.6132   0.16619   0.16344  -0.0980   0.0087   0.9998
  20.000   1.5874   0.17914   0.17660  -0.1068   0.0086   0.9998
  20.500   1.5629   0.19233   0.18998  -0.1165   0.0085   0.9998
  21.000   1.5404   0.20555   0.20338  -0.1267   0.0083   0.9998
  21.500   1.5230   0.21791   0.21589  -0.1367   0.0081   0.9998
  22.000   1.5052   0.23070   0.22884  -0.1473   0.0080   0.9998
  22.500   1.4916   0.24284   0.24111  -0.1576   0.0078   0.9998
  23.000   1.4808   0.25459   0.25297  -0.1677   0.0076   0.9998
  23.500   1.4719   0.26603   0.26451  -0.1778   0.0072   0.9998
  24.000   1.4535   0.28172   0.28039  -0.1914   0.0070   0.9998
  25.000   1.3882   0.36330   0.36223  -0.2455   0.0042   0.9998
