  
       XFOIL         Version 6.99
  
 Calculated polar for: NACA 0012                                       
  
 1 1 Reynolds number fixed          Mach number fixed         
  
 xtrf =   1.000 (top)        1.000 (bottom)  
 Mach =   0.000     Re =     1.521 e 6     Ncrit =   9.000
  
   alpha    CL        CD       CDp       CM     Top_Xtr  Bot_Xtr
  ------ -------- --------- --------- -------- -------- --------
 -12.000  -1.7037   0.03623   0.03049   0.0501   0.7143   0.0117
 -11.500  -1.6951   0.03310   0.02718   0.0551   0.7122   0.0124
 -11.000  -1.6752   0.03092   0.02489   0.0592   0.7096   0.0130
 -10.500  -1.6498   0.02915   0.02301   0.0629   0.7073   0.0136
 -10.000  -1.6213   0.02759   0.02134   0.0664   0.7045   0.0142
  -9.500  -1.5896   0.02627   0.01992   0.0696   0.7018   0.0146
  -9.000  -1.5621   0.02452   0.01809   0.0735   0.6991   0.0159
  -8.500  -1.5280   0.02330   0.01680   0.0766   0.6960   0.0169
  -8.000  -1.4912   0.02226   0.01568   0.0794   0.6933   0.0177
  -7.500  -1.4562   0.02099   0.01436   0.0826   0.6900   0.0192
  -7.000  -1.4173   0.02002   0.01335   0.0853   0.6866   0.0208
  -6.500  -1.3777   0.01909   0.01236   0.0879   0.6841   0.0225
  -6.000  -1.3372   0.01817   0.01144   0.0905   0.6801   0.0249
  -5.500  -1.2955   0.01732   0.01056   0.0929   0.6765   0.0276
  -5.000  -1.2529   0.01655   0.00978   0.0952   0.6734   0.0307
  -4.500  -1.2101   0.01574   0.00900   0.0976   0.6689   0.0356
  -4.000  -1.1666   0.01500   0.00828   0.0998   0.6641   0.0415
  -3.500  -1.1228   0.01428   0.00759   0.1021   0.6595   0.0496
  -3.000  -1.0785   0.01360   0.00696   0.1042   0.6534   0.0600
  -2.500  -1.0350   0.01287   0.00633   0.1066   0.6469   0.0767
  -2.000  -0.9913   0.01219   0.00575   0.1089   0.6396   0.0977
  -1.500  -0.9494   0.01144   0.00514   0.1116   0.6311   0.1289
  -1.000  -0.9087   0.01070   0.00458   0.1145   0.6220   0.1689
  -0.500  -0.8738   0.00998   0.00405   0.1187   0.6114   0.2168
  -0.000  -0.8377   0.00924   0.00357   0.1227   0.6002   0.2754
