  
       XFOIL         Version 6.99
  
 Calculated polar for: NACA 2412                                       
  
 1 1 Reynolds number fixed          Mach number fixed         
  
 xtrf =   1.000 (top)        1.000 (bottom)  
 Mach =   0.000     Re =     2.332 e 6     Ncrit =   9.000
  
   alpha    CL        CD       CDp       CM     Top_Xtr  Bot_Xtr
  ------ -------- --------- --------- -------- -------- --------
  -5.000  -0.2435   0.00684   0.00185  -0.0643   0.8401   0.0616
  -4.500  -0.1871   0.00657   0.00162  -0.0643   0.8258   0.0778
  -4.000  -0.1305   0.00636   0.00142  -0.0644   0.8107   0.0956
  -3.500  -0.0738   0.00612   0.00125  -0.0645   0.7942   0.1215
  -3.000  -0.0171   0.00592   0.00111  -0.0645   0.7758   0.1520
  -2.500   0.0395   0.00572   0.00099  -0.0646   0.7524   0.1904
  -2.000   0.0954   0.00562   0.00089  -0.0645   0.7134   0.2322
  -1.500   0.1503   0.00561   0.00085  -0.0643   0.6614   0.2812
  -1.000   0.2058   0.00558   0.00084  -0.0642   0.6205   0.3373
  -0.500   0.2614   0.00552   0.00085  -0.0641   0.5839   0.4051
   0.000   0.3167   0.00539   0.00088  -0.0640   0.5503   0.5013
   1.000   0.4280   0.00534   0.00103  -0.0639   0.4906   0.6521
   1.500   0.4839   0.00541   0.00113  -0.0638   0.4637   0.7008
   2.000   0.5391   0.00548   0.00124  -0.0636   0.4359   0.7521
   2.500   0.5908   0.00534   0.00141  -0.0626   0.4082   0.8832
   3.000   0.6407   0.00547   0.00160  -0.0609   0.3746   0.9696
   3.500   0.7050   0.00584   0.00180  -0.0628   0.3324   0.9929
   4.000   0.7741   0.00633   0.00206  -0.0660   0.2823   0.9993
   4.500   0.8246   0.00685   0.00236  -0.0650   0.2342   1.0000
   5.000   0.8719   0.00743   0.00270  -0.0633   0.1867   1.0000
   5.500   0.9203   0.00805   0.00310  -0.0620   0.1432   1.0000
   6.000   0.9695   0.00866   0.00353  -0.0608   0.1077   1.0000
   6.500   1.0190   0.00928   0.00399  -0.0597   0.0807   1.0000
   7.000   1.0689   0.00986   0.00446  -0.0588   0.0627   1.0000
   7.500   1.1183   0.01047   0.00497  -0.0577   0.0486   1.0000
   8.000   1.1679   0.01104   0.00549  -0.0568   0.0402   1.0000
   8.500   1.2168   0.01163   0.00604  -0.0557   0.0337   1.0000
   9.000   1.2648   0.01226   0.00664  -0.0545   0.0288   1.0000
   9.500   1.3116   0.01294   0.00729  -0.0531   0.0248   1.0000
  10.000   1.3581   0.01357   0.00793  -0.0518   0.0224   1.0000
  10.500   1.4025   0.01430   0.00868  -0.0501   0.0201   1.0000
  11.000   1.4453   0.01506   0.00945  -0.0482   0.0184   1.0000
  11.500   1.4851   0.01592   0.01034  -0.0458   0.0168   1.0000
  12.000   1.5206   0.01674   0.01120  -0.0427   0.0157   1.0000
  12.500   1.5508   0.01785   0.01235  -0.0389   0.0143   1.0000
  13.000   1.5823   0.01893   0.01350  -0.0356   0.0137   1.0000
  13.500   1.6119   0.02016   0.01479  -0.0324   0.0130   1.0000
  14.000   1.6377   0.02169   0.01638  -0.0290   0.0123   1.0000
  14.500   1.6561   0.02382   0.01862  -0.0252   0.0114   1.0000
  15.000   1.6801   0.02569   0.02057  -0.0224   0.0111   1.0000
