  
       XFOIL         Version 6.99
  
 Calculated polar for: NACA 2412                                       
  
 1 1 Reynolds number fixed          Mach number fixed         
  
 xtrf =   1.000 (top)        1.000 (bottom)  
 Mach =   0.000     Re =     2.332 e 6     Ncrit =   9.000
  
   alpha    CL        CD       CDp       CM     Top_Xtr  Bot_Xtr
  ------ -------- --------- --------- -------- -------- --------
 -15.000  -0.8481   0.01496   0.01025  -0.1324   0.7823   0.0136
 -14.500  -0.7972   0.01377   0.00896  -0.1329   0.7824   0.0146
 -14.000  -0.7437   0.01301   0.00815  -0.1335   0.7826   0.0154
 -13.500  -0.6892   0.01237   0.00745  -0.1341   0.7828   0.0161
 -13.000  -0.6347   0.01166   0.00666  -0.1346   0.7830   0.0170
 -12.500  -0.5797   0.01101   0.00598  -0.1351   0.7833   0.0184
 -12.000  -0.5236   0.01054   0.00547  -0.1357   0.7836   0.0195
 -11.500  -0.4677   0.00996   0.00486  -0.1363   0.7838   0.0213
 -11.000  -0.4111   0.00953   0.00441  -0.1368   0.7841   0.0230
 -10.500  -0.3542   0.00909   0.00394  -0.1374   0.7844   0.0252
 -10.000  -0.2968   0.00874   0.00359  -0.1380   0.7847   0.0277
  -9.500  -0.2395   0.00835   0.00321  -0.1386   0.7851   0.0315
  -9.000  -0.1817   0.00802   0.00290  -0.1392   0.7854   0.0359
  -8.500  -0.1239   0.00771   0.00260  -0.1398   0.7847   0.0414
  -8.000  -0.0661   0.00740   0.00232  -0.1403   0.7828   0.0487
  -7.500  -0.0081   0.00712   0.00207  -0.1409   0.7812   0.0585
  -7.000   0.0500   0.00687   0.00187  -0.1415   0.7800   0.0708
  -6.500   0.1083   0.00664   0.00170  -0.1420   0.7786   0.0876
  -6.000   0.1667   0.00643   0.00157  -0.1426   0.7770   0.1084
  -5.500   0.2251   0.00624   0.00147  -0.1432   0.7753   0.1357
  -5.000   0.2836   0.00599   0.00134  -0.1438   0.7745   0.1676
  -4.500   0.3421   0.00576   0.00124  -0.1443   0.7732   0.2027
  -4.000   0.4006   0.00555   0.00115  -0.1448   0.7711   0.2419
  -3.500   0.4591   0.00535   0.00108  -0.1453   0.7681   0.2847
  -3.000   0.5173   0.00518   0.00103  -0.1458   0.7642   0.3291
  -2.500   0.5753   0.00506   0.00102  -0.1461   0.7587   0.3769
  -2.000   0.6335   0.00484   0.00099  -0.1465   0.7525   0.4343
  -1.500   0.6910   0.00470   0.00098  -0.1467   0.7408   0.4941
  -0.500   0.7817   0.00602   0.00163  -0.1424   0.5248   0.5678
  -0.000   0.8316   0.00642   0.00189  -0.1411   0.4764   0.5945
   0.500   0.8820   0.00679   0.00215  -0.1400   0.4360   0.6156
   1.000   0.9314   0.00720   0.00243  -0.1386   0.3964   0.6325
   1.500   0.9790   0.00770   0.00276  -0.1369   0.3504   0.6455
   2.000   1.0242   0.00830   0.00315  -0.1347   0.2998   0.6561
   2.500   1.0673   0.00901   0.00361  -0.1322   0.2464   0.6652
   3.000   1.1096   0.00975   0.00412  -0.1296   0.1953   0.6720
   3.500   1.1502   0.01055   0.00468  -0.1266   0.1482   0.6783
   4.000   1.1868   0.01133   0.00525  -0.1228   0.1104   0.6835
   4.500   1.2279   0.01210   0.00587  -0.1201   0.0836   0.6890
   5.000   1.2691   0.01287   0.00652  -0.1174   0.0636   0.6929
   5.500   1.3113   0.01355   0.00714  -0.1150   0.0513   0.6966
   6.000   1.3525   0.01430   0.00783  -0.1124   0.0417   0.7001
   6.500   1.3932   0.01502   0.00854  -0.1099   0.0350   0.7035
   7.000   1.4333   0.01579   0.00930  -0.1073   0.0298   0.7067
   8.000   1.5095   0.01754   0.01108  -0.1018   0.0227   0.7136
   8.500   1.5471   0.01844   0.01201  -0.0990   0.0208   0.7170
   9.500   1.6166   0.02060   0.01426  -0.0930   0.0173   0.7253
  10.000   1.6474   0.02195   0.01568  -0.0896   0.0155   0.7310
  10.500   1.6803   0.02311   0.01702  -0.0867   0.0148   0.7769
  11.000   1.7068   0.02421   0.01853  -0.0827   0.0138   0.9999
  11.500   1.7309   0.02605   0.02044  -0.0788   0.0126   0.9999
  12.000   1.7578   0.02769   0.02215  -0.0755   0.0122   0.9999
  12.500   1.7812   0.02961   0.02415  -0.0719   0.0116   0.9999
  13.000   1.8007   0.03184   0.02644  -0.0682   0.0110   0.9999
  13.500   1.8142   0.03464   0.02934  -0.0641   0.0103   0.9999
  14.000   1.8292   0.03742   0.03224  -0.0604   0.0100   0.9999
  14.500   1.8438   0.04035   0.03527  -0.0571   0.0097   0.9999
  15.000   1.8550   0.04373   0.03876  -0.0539   0.0094   0.9999
  15.500   1.8624   0.04761   0.04276  -0.0509   0.0091   0.9999
  16.000   1.8659   0.05216   0.04744  -0.0483   0.0087   0.9999
  16.500   1.8612   0.05814   0.05356  -0.0465   0.0083   0.9999
  17.000   1.8465   0.06587   0.06150  -0.0458   0.0080   0.9999
  17.500   1.8331   0.07395   0.06977  -0.0463   0.0079   0.9999
  18.000   1.8182   0.08244   0.07845  -0.0475   0.0078   0.9999
  18.500   1.7960   0.09223   0.08844  -0.0496   0.0077   0.9999
  19.000   1.7680   0.10317   0.09959  -0.0529   0.0076   0.9999
  19.500   1.7357   0.11505   0.11169  -0.0573   0.0075   0.9999
  20.000   1.7015   0.12769   0.12455  -0.0628   0.0075   0.9999
  20.500   1.6633   0.14141   0.13849  -0.0699   0.0074   0.9999
  21.000   1.6263   0.15555   0.15286  -0.0783   0.0073   0.9999
  21.500   1.5874   0.17060   0.16813  -0.0881   0.0073   0.9999
  22.000   1.5498   0.18614   0.18389  -0.0992   0.0072   0.9999
  22.500   1.5117   0.20270   0.20066  -0.1118   0.0072   0.9999
  23.000   1.4807   0.21845   0.21660  -0.1243   0.0071   0.9999
  23.500   1.4585   0.23250   0.23080  -0.1358   0.0069   0.9999
  24.000   1.4403   0.24602   0.24445  -0.1471   0.0068   0.9999
  24.500   1.4256   0.25922   0.25776  -0.1582   0.0066   0.9999
  25.000   1.4177   0.27068   0.26931  -0.1681   0.0063   0.9999
