  
       XFOIL         Version 6.99
  
 Calculated polar for: NACA 0012                                       
  
 1 1 Reynolds number fixed          Mach number fixed         
  
 xtrf =   1.000 (top)        1.000 (bottom)  
 Mach =   0.000     Re =     2.332 e 6     Ncrit =   9.000
  
   alpha    CL        CD       CDp       CM     Top_Xtr  Bot_Xtr
  ------ -------- --------- --------- -------- -------- --------
 -12.000  -1.7186   0.02675   0.02099   0.0498   0.7113   0.0109
 -11.500  -1.6913   0.02518   0.01934   0.0533   0.7091   0.0114
 -11.000  -1.6616   0.02382   0.01787   0.0567   0.7066   0.0118
 -10.500  -1.6295   0.02260   0.01658   0.0599   0.7046   0.0121
 -10.000  -1.5992   0.02118   0.01508   0.0635   0.7022   0.0130
  -9.500  -1.5649   0.02005   0.01390   0.0667   0.6998   0.0138
  -9.000  -1.5282   0.01910   0.01288   0.0696   0.6975   0.0146
  -8.500  -1.4898   0.01820   0.01194   0.0724   0.6948   0.0153
  -8.000  -1.4519   0.01722   0.01094   0.0753   0.6921   0.0169
  -7.500  -1.4109   0.01647   0.01014   0.0778   0.6897   0.0180
  -7.000  -1.3697   0.01566   0.00931   0.0804   0.6868   0.0196
  -6.500  -1.3272   0.01494   0.00859   0.0827   0.6835   0.0215
  -6.000  -1.2838   0.01425   0.00788   0.0850   0.6804   0.0239
  -5.500  -1.2392   0.01364   0.00727   0.0872   0.6770   0.0262
  -5.000  -1.1947   0.01299   0.00665   0.0894   0.6725   0.0302
  -4.500  -1.1505   0.01242   0.00609   0.0917   0.6679   0.0350
  -4.000  -1.1068   0.01191   0.00561   0.0943   0.6628   0.0408
  -3.500  -1.0597   0.01138   0.00513   0.0961   0.6564   0.0490
  -3.000  -1.0117   0.01087   0.00467   0.0977   0.6495   0.0599
  -2.500  -0.9636   0.01035   0.00424   0.0994   0.6412   0.0761
  -2.000  -0.9150   0.00986   0.00384   0.1009   0.6322   0.0957
  -1.500  -0.8669   0.00933   0.00343   0.1026   0.6213   0.1264
  -1.000  -0.8192   0.00877   0.00306   0.1043   0.6098   0.1664
  -0.500  -0.7715   0.00823   0.00270   0.1060   0.5966   0.2144
  -0.000  -0.7239   0.00770   0.00237   0.1077   0.5814   0.2710
