  
       XFOIL         Version 6.99
  
 Calculated polar for: NACA 0012                                       
  
 1 1 Reynolds number fixed          Mach number fixed         
  
 xtrf =   1.000 (top)        1.000 (bottom)  
 Mach =   0.000     Re =     2.332 e 6     Ncrit =   9.000
  
   alpha    CL        CD       CDp       CM     Top_Xtr  Bot_Xtr
  ------ -------- --------- --------- -------- -------- --------
 -12.000  -1.5481   0.01880   0.01360   0.0271   0.9999   0.0125
 -11.500  -1.5142   0.01784   0.01258   0.0304   0.9999   0.0130
 -11.000  -1.4780   0.01703   0.01171   0.0336   0.9999   0.0134
 -10.500  -1.4404   0.01598   0.01060   0.0365   0.9999   0.0145
 -10.000  -1.3978   0.01517   0.00977   0.0386   0.9999   0.0155
  -9.500  -1.3525   0.01449   0.00905   0.0403   0.9999   0.0163
  -9.000  -1.3076   0.01370   0.00824   0.0422   0.9999   0.0179
  -8.500  -1.2603   0.01306   0.00760   0.0436   0.9999   0.0194
  -8.000  -1.2124   0.01242   0.00694   0.0450   0.9999   0.0212
  -7.500  -1.1635   0.01184   0.00637   0.0463   0.9999   0.0233
  -6.500  -1.0636   0.01136   0.00525   0.0485   0.7255   0.0296
  -6.000  -1.0122   0.01092   0.00480   0.0494   0.7183   0.0334
  -5.500  -0.9606   0.01048   0.00437   0.0502   0.7117   0.0394
  -5.000  -0.9084   0.01004   0.00396   0.0509   0.7063   0.0477
  -4.500  -0.8562   0.00961   0.00358   0.0517   0.7008   0.0596
  -4.000  -0.8030   0.00918   0.00324   0.0523   0.6953   0.0736
  -3.500  -0.7502   0.00872   0.00288   0.0529   0.6888   0.0959
  -3.000  -0.6969   0.00824   0.00256   0.0535   0.6814   0.1245
  -2.500  -0.6438   0.00776   0.00224   0.0541   0.6724   0.1626
  -2.000  -0.5905   0.00731   0.00196   0.0547   0.6602   0.2072
  -1.500  -0.5371   0.00688   0.00170   0.0552   0.6453   0.2585
  -1.000  -0.4836   0.00648   0.00148   0.0557   0.6275   0.3149
  -0.500  -0.4299   0.00611   0.00129   0.0562   0.6067   0.3752
  -0.000  -0.3760   0.00579   0.00113   0.0567   0.5817   0.4377
