  
       XFOIL         Version 6.99
  
 Calculated polar for: NACA 2412                                       
  
 1 1 Reynolds number fixed          Mach number fixed         
  
 xtrf =   1.000 (top)        1.000 (bottom)  
 Mach =   0.000     Re =     1.521 e 6     Ncrit =   9.000
  
   alpha    CL        CD       CDp       CM     Top_Xtr  Bot_Xtr
  ------ -------- --------- --------- -------- -------- --------
  -5.000   0.2077   0.00666   0.00164  -0.1325   0.7976   0.1714
  -4.500   0.2658   0.00644   0.00154  -0.1330   0.7951   0.2114
  -4.000   0.3240   0.00629   0.00151  -0.1335   0.7919   0.2537
  -3.500   0.3820   0.00605   0.00143  -0.1339   0.7897   0.3005
  -3.000   0.4400   0.00582   0.00136  -0.1343   0.7857   0.3513
  -2.500   0.4978   0.00561   0.00130  -0.1346   0.7809   0.4076
  -2.000   0.5553   0.00545   0.00131  -0.1349   0.7747   0.4750
  -1.500   0.6127   0.00526   0.00129  -0.1350   0.7668   0.5328
  -1.000   0.6697   0.00517   0.00130  -0.1350   0.7549   0.5743
  -0.500   0.7201   0.00537   0.00129  -0.1336   0.6648   0.6043
   0.000   0.7626   0.00627   0.00178  -0.1309   0.5647   0.6276
   0.500   0.8115   0.00678   0.00209  -0.1294   0.5102   0.6453
   1.000   0.8614   0.00723   0.00239  -0.1281   0.4661   0.6590
   1.500   0.9108   0.00769   0.00269  -0.1267   0.4267   0.6697
   2.000   0.9600   0.00817   0.00301  -0.1253   0.3862   0.6789
   2.500   1.0063   0.00876   0.00340  -0.1234   0.3365   0.6860
   3.000   1.0506   0.00945   0.00384  -0.1211   0.2834   0.6928
   3.500   1.0930   0.01024   0.00435  -0.1186   0.2274   0.6999
   4.000   1.1340   0.01104   0.00491  -0.1159   0.1731   0.7077
   4.500   1.1736   0.01183   0.00550  -0.1129   0.1289   0.7142
   5.500   1.2522   0.01339   0.00681  -0.1069   0.0724   0.7271
   6.000   1.2931   0.01416   0.00754  -0.1043   0.0568   0.7363
   6.500   1.3338   0.01484   0.00834  -0.1019   0.0455   0.7903
   7.000   1.3695   0.01534   0.00915  -0.0982   0.0383   0.9999
   7.500   1.4078   0.01626   0.01006  -0.0954   0.0325   0.9999
   8.000   1.4448   0.01724   0.01104  -0.0925   0.0284   0.9999
   8.500   1.4817   0.01823   0.01206  -0.0897   0.0256   0.9999
   9.000   1.5153   0.01943   0.01328  -0.0864   0.0228   0.9999
   9.500   1.5495   0.02058   0.01447  -0.0834   0.0210   0.9999
  10.000   1.5789   0.02206   0.01599  -0.0799   0.0190   0.9999
  10.500   1.6101   0.02342   0.01743  -0.0768   0.0179   0.9999
  11.000   1.6364   0.02512   0.01918  -0.0732   0.0166   0.9999
  11.500   1.6599   0.02707   0.02122  -0.0694   0.0156   0.9999
  12.000   1.6850   0.02889   0.02314  -0.0661   0.0148   0.9999
  12.500   1.7058   0.03109   0.02541  -0.0625   0.0140   0.9999
  13.000   1.7170   0.03407   0.02851  -0.0582   0.0131   0.9999
  13.500   1.7322   0.03687   0.03145  -0.0547   0.0126   0.9999
  14.000   1.7459   0.03990   0.03461  -0.0514   0.0122   0.9999
  14.500   1.7560   0.04345   0.03829  -0.0484   0.0118   0.9999
  15.000   1.7620   0.04761   0.04258  -0.0456   0.0113   0.9999
