  
       XFOIL         Version 6.99
  
 Calculated polar for: NACA 2412                                       
  
 1 1 Reynolds number fixed          Mach number fixed         
  
 xtrf =   1.000 (top)        1.000 (bottom)  
 Mach =   0.000     Re =     1.521 e 6     Ncrit =   9.000
  
   alpha    CL        CD       CDp       CM     Top_Xtr  Bot_Xtr
  ------ -------- --------- --------- -------- -------- --------
 -15.000  -0.1320   0.04439   0.04045  -0.2223   0.7674   0.0253
 -14.500  -0.0795   0.04485   0.04083  -0.2236   0.7674   0.0271
 -14.000  -0.0253   0.04527   0.04119  -0.2252   0.7673   0.0297
 -13.500   0.0247   0.04588   0.04176  -0.2256   0.7672   0.0321
 -13.000   0.0758   0.04647   0.04231  -0.2262   0.7671   0.0357
 -12.500   0.1236   0.04718   0.04298  -0.2260   0.7672   0.0391
 -12.000   0.1715   0.04790   0.04370  -0.2257   0.7673   0.0444
 -11.500   0.2185   0.04867   0.04447  -0.2253   0.7676   0.0510
 -11.000   0.2645   0.04948   0.04529  -0.2245   0.7680   0.0593
 -10.500   0.3103   0.05032   0.04616  -0.2237   0.7685   0.0698
 -10.000   0.3561   0.05118   0.04704  -0.2227   0.7691   0.0827
  -9.500   0.4037   0.05189   0.04780  -0.2220   0.7693   0.0987
  -9.000   0.4526   0.05252   0.04849  -0.2214   0.7690   0.1208
  -8.500   0.5002   0.05320   0.04924  -0.2205   0.7689   0.1439
  -8.000   0.5481   0.05387   0.05000  -0.2197   0.7688   0.1735
  -7.500   0.5954   0.05455   0.05075  -0.2186   0.7687   0.2013
  -6.500   0.6922   0.05575   0.05213  -0.2168   0.7678   0.2649
  -6.000   0.7433   0.05620   0.05267  -0.2161   0.7669   0.2976
  -5.500   0.7983   0.05650   0.05305  -0.2159   0.7659   0.3286
  -5.000   0.8631   0.05652   0.05315  -0.2171   0.7647   0.3629
  -4.500   0.9489   0.05623   0.05296  -0.2213   0.7634   0.4000
  -4.000   1.0182   0.05814   0.05498  -0.2230   0.7617   0.4347
  -3.500   1.1026   0.05027   0.04716  -0.2258   0.7485   0.4681
  -2.500   1.1283   0.05287   0.04989  -0.2134   0.6812   0.5006
  -2.000   1.2128   0.04871   0.04476  -0.2168   0.5294   0.5218
  -1.000   1.2945   0.04945   0.04489  -0.2117   0.4095   0.5473
  -0.500   1.3344   0.04990   0.04504  -0.2089   0.3516   0.5575
  -0.000   1.3728   0.05028   0.04505  -0.2059   0.2826   0.5669
   0.500   1.4136   0.05039   0.04477  -0.2032   0.2150   0.5751
   1.000   1.4526   0.05063   0.04466  -0.2002   0.1539   0.5827
   1.500   1.4899   0.05116   0.04490  -0.1970   0.1087   0.5888
   2.000   1.5270   0.05179   0.04535  -0.1938   0.0788   0.5953
   2.500   1.5636   0.05248   0.04593  -0.1906   0.0592   0.6009
   3.000   1.5996   0.05327   0.04662  -0.1873   0.0455   0.6062
   3.500   1.6353   0.05412   0.04744  -0.1841   0.0369   0.6109
   4.000   1.6699   0.05506   0.04837  -0.1807   0.0311   0.6148
   4.500   1.7039   0.05608   0.04939  -0.1773   0.0271   0.6190
   5.000   1.7368   0.05718   0.05052  -0.1737   0.0239   0.6235
   5.500   1.7671   0.05847   0.05182  -0.1699   0.0209   0.6267
   6.000   1.7980   0.05976   0.05318  -0.1663   0.0193   0.6290
   6.500   1.8239   0.06141   0.05487  -0.1620   0.0171   0.6312
   7.000   1.8516   0.06301   0.05655  -0.1582   0.0162   0.6336
   7.500   1.8739   0.06506   0.05868  -0.1538   0.0150   0.6366
   8.000   1.8925   0.06743   0.06112  -0.1490   0.0137   0.6404
   8.500   1.9149   0.06952   0.06332  -0.1448   0.0131   0.6424
   9.000   1.9342   0.07188   0.06578  -0.1405   0.0123   0.6436
   9.500   1.9450   0.07512   0.06911  -0.1355   0.0115   0.6447
  10.000   1.9531   0.07863   0.07277  -0.1305   0.0109   0.6460
  10.500   1.9631   0.08207   0.07636  -0.1261   0.0105   0.6475
  11.000   1.9712   0.08583   0.08026  -0.1218   0.0101   0.6494
  11.500   1.9741   0.09029   0.08487  -0.1177   0.0098   0.6517
  12.000   1.9729   0.09547   0.09019  -0.1140   0.0094   0.6555
  12.500   1.9656   0.10160   0.09650  -0.1110   0.0090   0.6562
  13.000   1.9469   0.10960   0.10472  -0.1090   0.0086   0.6568
  13.500   1.9357   0.11691   0.11224  -0.1083   0.0084   0.6576
  14.000   1.9272   0.12398   0.11951  -0.1085   0.0083   0.6585
  14.500   1.9160   0.13158   0.12732  -0.1097   0.0082   0.6595
  15.000   1.9024   0.13970   0.13564  -0.1120   0.0080   0.6606
  15.500   1.8880   0.14817   0.14432  -0.1154   0.0078   0.6619
  16.000   1.8722   0.15711   0.15346  -0.1199   0.0077   0.6634
  16.500   1.8552   0.16651   0.16305  -0.1254   0.0075   0.6648
  17.000   1.8360   0.17661   0.17336  -0.1323   0.0074   0.6662
  17.500   1.8158   0.18716   0.18410  -0.1402   0.0072   0.6675
  18.000   1.7928   0.19853   0.19568  -0.1495   0.0071   0.6679
  18.500   1.7678   0.21081   0.20816  -0.1603   0.0070   0.6683
  19.000   1.7422   0.22370   0.22125  -0.1721   0.0068   0.6686
  19.500   1.7167   0.23712   0.23487  -0.1849   0.0067   0.6690
  20.000   1.6961   0.24970   0.24761  -0.1972   0.0065   0.6694
  20.500   1.6812   0.26121   0.25930  -0.2086   0.0064   0.6699
  21.000   1.6687   0.27247   0.27072  -0.2198   0.0063   0.6706
  21.500   1.6561   0.28414   0.28255  -0.2317   0.0062   0.6713
  22.000   1.5991   0.31769   0.31653  -0.2646   0.0057   0.6697
  23.500   1.5919   0.38002   0.37890  -0.3163   0.0033   0.6688
  24.500   1.6149   0.39185   0.39074  -0.3294   0.0027   0.6705
  25.000   1.6233   0.39476   0.39367  -0.3343   0.0024   0.6717
