  
       XFOIL         Version 6.99
  
 Calculated polar for: NACA 2412                                       
  
 1 1 Reynolds number fixed          Mach number fixed         
  
 xtrf =   1.000 (top)        1.000 (bottom)  
 Mach =   0.000     Re =     1.521 e 6     Ncrit =   9.000
  
   alpha    CL        CD       CDp       CM     Top_Xtr  Bot_Xtr
  ------ -------- --------- --------- -------- -------- --------
 -15.000  -0.1418   0.04172   0.03771  -0.2239   0.7756   0.0247
 -14.500  -0.0873   0.04223   0.03814  -0.2252   0.7757   0.0262
 -14.000  -0.0290   0.04253   0.03837  -0.2276   0.7758   0.0291
 -13.500   0.0241   0.04312   0.03890  -0.2283   0.7758   0.0311
 -13.000   0.0794   0.04359   0.03934  -0.2296   0.7758   0.0353
 -12.500   0.1328   0.04416   0.03989  -0.2302   0.7759   0.0397
 -12.000   0.1849   0.04480   0.04049  -0.2305   0.7759   0.0442
 -11.500   0.2371   0.04545   0.04114  -0.2307   0.7759   0.0504
 -11.000   0.2893   0.04612   0.04181  -0.2308   0.7760   0.0590
 -10.500   0.3413   0.04679   0.04252  -0.2309   0.7760   0.0712
 -10.000   0.3930   0.04749   0.04326  -0.2309   0.7760   0.0864
  -9.500   0.4440   0.04818   0.04401  -0.2306   0.7760   0.1054
  -9.000   0.4930   0.04879   0.04467  -0.2300   0.7760   0.1265
  -8.500   0.5421   0.04941   0.04537  -0.2294   0.7760   0.1528
  -8.000   0.5907   0.05005   0.04608  -0.2287   0.7760   0.1807
  -7.500   0.6387   0.05069   0.04681  -0.2278   0.7760   0.2110
  -7.000   0.6860   0.05132   0.04752  -0.2267   0.7760   0.2420
  -6.500   0.7322   0.05193   0.04823  -0.2255   0.7760   0.2729
  -6.000   0.7769   0.05250   0.04889  -0.2239   0.7759   0.3051
  -5.500   0.8195   0.05301   0.04948  -0.2221   0.7759   0.3337
  -5.000   0.8553   0.05332   0.04989  -0.2192   0.7756   0.3631
  -4.500   0.8403   0.05119   0.04783  -0.2084   0.7665   0.3798
  -4.000   0.9225   0.04996   0.04670  -0.2119   0.7642   0.4183
  -3.500   1.0006   0.04691   0.04373  -0.2142   0.7518   0.4564
  -3.000   1.0820   0.04394   0.04083  -0.2171   0.7416   0.4872
  -2.500   1.1455   0.04190   0.03887  -0.2177   0.7310   0.5103
  -2.000   1.1910   0.04078   0.03701  -0.2161   0.5711   0.5274
  -1.500   1.2173   0.04213   0.03788  -0.2113   0.4883   0.5401
  -1.000   1.2530   0.04296   0.03846  -0.2080   0.4337   0.5521
  -0.500   1.2910   0.04359   0.03884  -0.2050   0.3835   0.5626
  -0.000   1.3320   0.04383   0.03875  -0.2023   0.3193   0.5726
   0.500   1.3705   0.04422   0.03878  -0.1993   0.2545   0.5808
   1.000   1.4072   0.04472   0.03892  -0.1959   0.1892   0.5886
   1.500   1.4434   0.04527   0.03912  -0.1925   0.1335   0.5955
   2.000   1.4809   0.04585   0.03950  -0.1893   0.0970   0.6018
   2.500   1.5185   0.04649   0.03998  -0.1862   0.0708   0.6074
   3.000   1.5558   0.04722   0.04059  -0.1831   0.0535   0.6129
   3.500   1.5926   0.04805   0.04137  -0.1799   0.0430   0.6177
   4.000   1.6280   0.04897   0.04227  -0.1767   0.0357   0.6217
   4.500   1.6621   0.05001   0.04330  -0.1732   0.0302   0.6260
   5.000   1.6950   0.05117   0.04446  -0.1697   0.0259   0.6302
   5.500   1.7273   0.05241   0.04572  -0.1662   0.0231   0.6336
   6.000   1.7580   0.05376   0.04712  -0.1625   0.0208   0.6359
   6.500   1.7870   0.05523   0.04862  -0.1586   0.0187   0.6381
   7.000   1.8146   0.05682   0.05028  -0.1547   0.0171   0.6407
   7.500   1.8416   0.05850   0.05203  -0.1508   0.0159   0.6437
   8.000   1.8628   0.06068   0.05427  -0.1462   0.0144   0.6474
   8.500   1.8846   0.06288   0.05658  -0.1420   0.0138   0.6490
   9.000   1.9044   0.06522   0.05902  -0.1377   0.0130   0.6502
   9.500   1.9215   0.06784   0.06172  -0.1332   0.0121   0.6514
  10.000   1.9293   0.07142   0.06544  -0.1280   0.0114   0.6529
  10.500   1.9432   0.07450   0.06865  -0.1237   0.0110   0.6550
  11.000   1.9537   0.07797   0.07226  -0.1194   0.0106   0.6573
  11.500   1.9591   0.08208   0.07650  -0.1151   0.0102   0.6604
  12.000   1.9601   0.08685   0.08142  -0.1111   0.0098   0.6616
  12.500   1.9521   0.09296   0.08771  -0.1074   0.0093   0.6625
  13.000   1.9340   0.10079   0.09577  -0.1047   0.0089   0.6633
  13.500   1.9291   0.10716   0.10233  -0.1033   0.0088   0.6645
  14.000   1.9208   0.11421   0.10958  -0.1028   0.0086   0.6657
  14.500   1.9093   0.12190   0.11747  -0.1034   0.0084   0.6670
  15.000   1.8958   0.13009   0.12586  -0.1051   0.0083   0.6684
  15.500   1.8810   0.13861   0.13459  -0.1079   0.0081   0.6702
  16.000   1.8658   0.14741   0.14358  -0.1116   0.0079   0.6720
  16.500   1.8483   0.15687   0.15323  -0.1166   0.0077   0.6726
  17.000   1.8279   0.16713   0.16370  -0.1229   0.0075   0.6732
  17.500   1.8050   0.17825   0.17503  -0.1307   0.0074   0.6738
  18.000   1.7797   0.19019   0.18719  -0.1400   0.0073   0.6743
  18.500   1.7528   0.20281   0.20002  -0.1505   0.0072   0.6748
  19.000   1.7237   0.21653   0.21395  -0.1626   0.0070   0.6753
  19.500   1.6961   0.23045   0.22807  -0.1755   0.0068   0.6757
  20.000   1.6795   0.24210   0.23991  -0.1864   0.0068   0.6764
  20.500   1.6664   0.25312   0.25108  -0.1969   0.0067   0.6772
  21.000   1.6538   0.26432   0.26244  -0.2078   0.0066   0.6781
  21.500   1.6410   0.27604   0.27432  -0.2193   0.0065   0.6792
  22.000   1.6248   0.28961   0.28807  -0.2328   0.0063   0.6799
