  
       XFOIL         Version 6.99
  
 Calculated polar for: NACA 2412                                       
  
 1 1 Reynolds number fixed          Mach number fixed         
  
 xtrf =   1.000 (top)        1.000 (bottom)  
 Mach =   0.000     Re =     2.332 e 6     Ncrit =   9.000
  
   alpha    CL        CD       CDp       CM     Top_Xtr  Bot_Xtr
  ------ -------- --------- --------- -------- -------- --------
 -15.000  -1.5716   0.02637   0.02229  -0.0309   0.9999   0.0096
 -14.500  -1.5533   0.02441   0.02021  -0.0270   0.9999   0.0099
 -14.000  -1.5308   0.02284   0.01854  -0.0229   0.9999   0.0101
 -13.500  -1.5033   0.02156   0.01717  -0.0190   0.9999   0.0105
 -13.000  -1.4676   0.02040   0.01591  -0.0163   0.9999   0.0108
 -12.500  -1.4285   0.01935   0.01478  -0.0140   0.9999   0.0110
 -12.000  -1.3911   0.01798   0.01329  -0.0114   0.9999   0.0114
 -11.500  -1.3501   0.01681   0.01203  -0.0093   0.9999   0.0121
 -11.000  -1.3055   0.01591   0.01109  -0.0076   0.9999   0.0127
 -10.500  -1.2593   0.01512   0.01024  -0.0061   0.9999   0.0132
 -10.000  -1.2119   0.01443   0.00950  -0.0046   0.9999   0.0136
  -9.500  -1.1639   0.01349   0.00850  -0.0034   0.9974   0.0146
  -9.000  -1.1095   0.01317   0.00772  -0.0033   0.7983   0.0157
  -8.500  -1.0593   0.01281   0.00711  -0.0023   0.7351   0.0165
  -8.000  -1.0085   0.01218   0.00640  -0.0014   0.7250   0.0178
  -7.500  -0.9565   0.01166   0.00584  -0.0006   0.7185   0.0193
  -7.000  -0.9035   0.01125   0.00537  -0.0000   0.7130   0.0203
  -6.500  -0.8507   0.01072   0.00483   0.0006   0.7088   0.0229
  -6.000  -0.7971   0.01035   0.00441   0.0012   0.7037   0.0249
  -5.500  -0.7429   0.00989   0.00398   0.0016   0.6998   0.0280
  -5.000  -0.6884   0.00948   0.00358   0.0020   0.6944   0.0320
  -4.500  -0.6334   0.00909   0.00322   0.0023   0.6891   0.0367
  -4.000  -0.5781   0.00872   0.00287   0.0026   0.6822   0.0429
  -3.500  -0.5227   0.00836   0.00256   0.0028   0.6742   0.0515
  -3.000  -0.4671   0.00803   0.00227   0.0030   0.6642   0.0625
  -2.500  -0.4113   0.00773   0.00201   0.0032   0.6517   0.0773
  -2.000  -0.3557   0.00742   0.00177   0.0034   0.6377   0.0979
  -1.500  -0.3001   0.00714   0.00157   0.0036   0.6216   0.1255
  -1.000  -0.2444   0.00689   0.00139   0.0037   0.6036   0.1588
  -0.000  -0.1332   0.00639   0.00112   0.0040   0.5643   0.2538
   0.500  -0.0777   0.00615   0.00102   0.0042   0.5436   0.3150
   1.000  -0.0226   0.00587   0.00094   0.0043   0.5228   0.3976
   1.500   0.0305   0.00536   0.00085   0.0047   0.5025   0.5510
   2.000   0.0823   0.00475   0.00079   0.0055   0.4828   0.7527
   2.500   0.1400   0.00482   0.00084   0.0053   0.4641   0.7731
   3.000   0.1981   0.00493   0.00089   0.0050   0.4447   0.7840
   3.500   0.2557   0.00503   0.00096   0.0048   0.4239   0.7935
   4.000   0.3135   0.00521   0.00104   0.0045   0.3997   0.7998
   4.500   0.3709   0.00537   0.00114   0.0043   0.3716   0.8067
   5.000   0.4277   0.00561   0.00128   0.0041   0.3387   0.8148
   5.500   0.4840   0.00590   0.00145   0.0040   0.3014   0.8236
   6.000   0.5398   0.00623   0.00166   0.0039   0.2612   0.8308
   6.500   0.5954   0.00667   0.00192   0.0037   0.2171   0.8329
   7.000   0.6503   0.00716   0.00222   0.0037   0.1739   0.8346
   7.500   0.7044   0.00770   0.00258   0.0037   0.1327   0.8377
   8.000   0.7583   0.00822   0.00297   0.0038   0.1010   0.8420
   8.500   0.8119   0.00875   0.00339   0.0039   0.0765   0.8468
   9.000   0.8653   0.00928   0.00383   0.0040   0.0593   0.8519
   9.500   0.9183   0.00976   0.00429   0.0042   0.0479   0.8606
  10.500   1.0224   0.01079   0.00532   0.0048   0.0331   0.8869
  11.000   1.0727   0.01127   0.00588   0.0054   0.0288   0.9103
  11.500   1.1204   0.01178   0.00650   0.0066   0.0253   0.9448
  12.000   1.1687   0.01244   0.00720   0.0075   0.0219   0.9817
  12.500   1.2282   0.01310   0.00789   0.0057   0.0201   0.9977
  13.000   1.2757   0.01392   0.00872   0.0064   0.0180   1.0001
  13.500   1.3218   0.01463   0.00946   0.0074   0.0169   1.0001
  14.000   1.3644   0.01559   0.01044   0.0088   0.0152   1.0001
  14.500   1.4072   0.01646   0.01136   0.0100   0.0145   1.0001
  15.000   1.4476   0.01742   0.01238   0.0116   0.0137   1.0001
  15.500   1.4826   0.01863   0.01363   0.0137   0.0128   1.0001
  16.000   1.5059   0.02010   0.01520   0.0174   0.0121   1.0001
  16.500   1.5312   0.02161   0.01680   0.0202   0.0117   1.0001
  17.000   1.5531   0.02365   0.01893   0.0222   0.0113   1.0001
  17.500   1.5711   0.02657   0.02196   0.0228   0.0108   1.0001
  18.000   1.5847   0.03075   0.02626   0.0218   0.0103   1.0001
  18.500   1.5851   0.03621   0.03188   0.0209   0.0098   1.0001
  19.000   1.5821   0.04210   0.03794   0.0197   0.0096   1.0001
  19.500   1.5783   0.04828   0.04427   0.0182   0.0095   1.0001
  20.000   1.5667   0.05555   0.05171   0.0162   0.0094   1.0001
  20.500   1.5494   0.06405   0.06038   0.0133   0.0093   1.0001
  21.000   1.5256   0.07391   0.07043   0.0096   0.0091   1.0001
  21.500   1.4947   0.08517   0.08189   0.0050   0.0090   1.0001
  22.000   1.4575   0.09773   0.09466  -0.0004   0.0089   1.0001
  22.500   1.4126   0.11203   0.10918  -0.0070   0.0089   1.0001
  23.000   1.3631   0.12775   0.12513  -0.0148   0.0088   1.0001
  23.500   1.3168   0.14358   0.14117  -0.0233   0.0088   1.0001
  24.000   1.2695   0.16050   0.15831  -0.0332   0.0087   1.0001
  24.500   1.2334   0.17617   0.17415  -0.0431   0.0086   1.0001
  25.000   1.2059   0.19070   0.18883  -0.0527   0.0085   1.0001
