  
       XFOIL         Version 6.99
  
 Calculated polar for: NACA 0012                                       
  
 1 1 Reynolds number fixed          Mach number fixed         
  
 xtrf =   1.000 (top)        1.000 (bottom)  
 Mach =   0.000     Re =     1.521 e 6     Ncrit =   9.000
  
   alpha    CL        CD       CDp       CM     Top_Xtr  Bot_Xtr
  ------ -------- --------- --------- -------- -------- --------
 -12.000  -1.0082   0.01361   0.00845  -0.0490   0.9832   0.0206
 -11.000  -0.9051   0.01212   0.00684  -0.0485   0.9515   0.0244
 -10.500  -0.8553   0.01152   0.00615  -0.0476   0.9333   0.0267
 -10.000  -0.8040   0.01099   0.00555  -0.0470   0.9173   0.0297
  -9.500  -0.7520   0.01043   0.00494  -0.0466   0.9039   0.0338
  -9.000  -0.6987   0.00994   0.00441  -0.0463   0.8929   0.0388
  -8.500  -0.6446   0.00947   0.00394  -0.0462   0.8847   0.0456
  -8.000  -0.5900   0.00902   0.00350  -0.0462   0.8776   0.0547
  -7.500  -0.5349   0.00862   0.00311  -0.0462   0.8717   0.0666
  -7.000  -0.4795   0.00816   0.00275  -0.0463   0.8673   0.0854
  -6.500  -0.4241   0.00774   0.00242  -0.0464   0.8616   0.1094
  -6.000  -0.3687   0.00735   0.00212  -0.0464   0.8533   0.1406
  -5.500  -0.3128   0.00695   0.00186  -0.0465   0.8467   0.1785
  -5.000  -0.2569   0.00660   0.00163  -0.0465   0.8400   0.2223
  -4.500  -0.2004   0.00624   0.00145  -0.0467   0.8348   0.2690
  -4.000  -0.1436   0.00594   0.00130  -0.0469   0.8290   0.3162
  -3.500  -0.0868   0.00570   0.00119  -0.0470   0.8218   0.3626
  -3.000  -0.0294   0.00546   0.00110  -0.0473   0.8156   0.4068
  -2.500   0.0276   0.00529   0.00104  -0.0474   0.8069   0.4502
  -2.000   0.0851   0.00512   0.00099  -0.0475   0.7973   0.4902
  -1.500   0.1423   0.00499   0.00097  -0.0476   0.7848   0.5283
  -1.000   0.1994   0.00491   0.00096  -0.0476   0.7666   0.5628
  -0.500   0.2535   0.00503   0.00091  -0.0470   0.6784   0.5934
  -0.000   0.3037   0.00565   0.00113  -0.0458   0.5579   0.6206
