  
       XFOIL         Version 6.99
  
 Calculated polar for: NACA 0012                                       
  
 1 1 Reynolds number fixed          Mach number fixed         
  
 xtrf =   1.000 (top)        1.000 (bottom)  
 Mach =   0.000     Re =     1.521 e 6     Ncrit =   9.000
  
   alpha    CL        CD       CDp       CM     Top_Xtr  Bot_Xtr
  ------ -------- --------- --------- -------- -------- --------
 -12.000  -1.6593   0.03126   0.02551   0.0433   0.7341   0.0123
 -11.500  -1.6457   0.02858   0.02267   0.0480   0.7301   0.0130
 -11.000  -1.6210   0.02677   0.02074   0.0517   0.7259   0.0136
 -10.500  -1.5927   0.02524   0.01910   0.0552   0.7225   0.0142
 -10.000  -1.5612   0.02391   0.01766   0.0584   0.7192   0.0148
  -9.500  -1.5316   0.02241   0.01604   0.0620   0.7159   0.0157
  -9.000  -1.4980   0.02118   0.01475   0.0652   0.7126   0.0169
  -8.500  -1.4612   0.02019   0.01368   0.0681   0.7092   0.0179
  -8.000  -1.4243   0.01916   0.01255   0.0710   0.7057   0.0191
  -7.500  -1.3859   0.01818   0.01155   0.0738   0.7022   0.0208
  -7.000  -1.3442   0.01748   0.01076   0.0761   0.6986   0.0220
  -6.500  -1.3042   0.01651   0.00980   0.0788   0.6949   0.0248
  -6.000  -1.2612   0.01580   0.00904   0.0811   0.6911   0.0271
  -5.500  -1.2181   0.01505   0.00829   0.0834   0.6875   0.0306
  -5.000  -1.1741   0.01432   0.00758   0.0856   0.6830   0.0352
  -4.500  -1.1294   0.01366   0.00693   0.0877   0.6793   0.0409
  -4.000  -1.0847   0.01301   0.00633   0.0899   0.6744   0.0486
  -3.500  -1.0418   0.01241   0.00578   0.0926   0.6691   0.0590
  -3.000  -0.9970   0.01183   0.00527   0.0949   0.6637   0.0737
  -2.500  -0.9507   0.01121   0.00476   0.0968   0.6566   0.0945
  -2.000  -0.9044   0.01059   0.00428   0.0988   0.6492   0.1243
  -1.500  -0.8588   0.00992   0.00381   0.1008   0.6400   0.1654
  -1.000  -0.8132   0.00927   0.00338   0.1029   0.6302   0.2155
  -0.500  -0.7681   0.00862   0.00296   0.1051   0.6184   0.2753
  -0.000  -0.7228   0.00798   0.00259   0.1073   0.6054   0.3429
