  
       XFOIL         Version 6.99
  
 Calculated polar for: NACA 0012                                       
  
 1 1 Reynolds number fixed          Mach number fixed         
  
 xtrf =   1.000 (top)        1.000 (bottom)  
 Mach =   0.000     Re =     1.521 e 6     Ncrit =   9.000
  
   alpha    CL        CD       CDp       CM     Top_Xtr  Bot_Xtr
  ------ -------- --------- --------- -------- -------- --------
 -12.000  -1.1142   0.01450   0.00929  -0.0306   0.9988   0.0191
 -11.500  -1.0523   0.01372   0.00847  -0.0327   0.9960   0.0206
 -11.000  -0.9897   0.01280   0.00750  -0.0351   0.9937   0.0227
 -10.500  -0.9292   0.01212   0.00680  -0.0367   0.9887   0.0247
 -10.000  -0.8680   0.01136   0.00603  -0.0385   0.9832   0.0279
  -9.500  -0.8126   0.01077   0.00541  -0.0388   0.9723   0.0312
  -9.000  -0.7598   0.01027   0.00488  -0.0383   0.9590   0.0349
  -8.500  -0.7082   0.00975   0.00435  -0.0376   0.9446   0.0407
  -8.000  -0.6557   0.00929   0.00388  -0.0371   0.9311   0.0479
  -7.500  -0.6025   0.00883   0.00343  -0.0366   0.9190   0.0589
  -6.500  -0.4945   0.00797   0.00267  -0.0361   0.8952   0.0936
  -6.000  -0.4400   0.00755   0.00234  -0.0358   0.8826   0.1208
  -5.500  -0.3852   0.00717   0.00204  -0.0357   0.8722   0.1551
  -5.000  -0.3297   0.00675   0.00179  -0.0357   0.8630   0.1967
  -4.500  -0.2741   0.00640   0.00157  -0.0357   0.8544   0.2419
  -4.000  -0.2179   0.00607   0.00139  -0.0357   0.8457   0.2901
  -3.500  -0.1615   0.00579   0.00125  -0.0358   0.8371   0.3382
  -3.000  -0.1048   0.00554   0.00114  -0.0359   0.8275   0.3853
  -2.500  -0.0480   0.00532   0.00106  -0.0360   0.8172   0.4321
  -2.000   0.0087   0.00516   0.00099  -0.0360   0.8049   0.4755
  -1.500   0.0657   0.00502   0.00095  -0.0360   0.7898   0.5171
  -1.000   0.1225   0.00491   0.00093  -0.0360   0.7693   0.5556
  -0.500   0.1778   0.00493   0.00090  -0.0356   0.7007   0.5910
