  
       XFOIL         Version 6.99
  
 Calculated polar for: NACA 0012                                       
  
 1 1 Reynolds number fixed          Mach number fixed         
  
 xtrf =   1.000 (top)        1.000 (bottom)  
 Mach =   0.000     Re =     1.521 e 6     Ncrit =   9.000
  
   alpha    CL        CD       CDp       CM     Top_Xtr  Bot_Xtr
  ------ -------- --------- --------- -------- -------- --------
 -12.000  -1.3277   0.01754   0.01219  -0.0021   1.0000   0.0162
 -11.500  -1.2849   0.01663   0.01120  -0.0003   1.0000   0.0169
 -11.000  -1.2435   0.01550   0.01002   0.0017   1.0000   0.0184
 -10.500  -1.1975   0.01476   0.00924   0.0031   1.0000   0.0197
 -10.000  -1.1522   0.01391   0.00833   0.0047   1.0000   0.0213
  -9.500  -1.1056   0.01319   0.00760   0.0062   1.0000   0.0231
  -9.000  -1.0593   0.01251   0.00688   0.0078   1.0000   0.0252
  -8.500  -1.0134   0.01192   0.00629   0.0096   1.0000   0.0279
  -8.000  -0.9688   0.01131   0.00568   0.0117   1.0000   0.0314
  -7.500  -0.9240   0.01079   0.00516   0.0139   1.0000   0.0353
  -7.000  -0.8797   0.01031   0.00469   0.0162   1.0000   0.0404
  -6.500  -0.8308   0.00981   0.00424   0.0175   0.9995   0.0477
  -6.000  -0.7638   0.00924   0.00376   0.0148   0.9967   0.0604
  -5.500  -0.6947   0.00870   0.00333   0.0117   0.9939   0.0780
  -5.000  -0.6290   0.00815   0.00293   0.0094   0.9887   0.1028
  -4.500  -0.5614   0.00760   0.00255   0.0067   0.9827   0.1375
  -4.000  -0.5042   0.00708   0.00222   0.0064   0.9666   0.1799
  -3.500  -0.4510   0.00663   0.00193   0.0071   0.9398   0.2275
  -3.000  -0.3999   0.00628   0.00167   0.0083   0.8947   0.2771
  -2.500  -0.3487   0.00606   0.00144   0.0095   0.8282   0.3304
  -2.000  -0.2961   0.00591   0.00127   0.0103   0.7638   0.3852
  -1.500  -0.2419   0.00576   0.00115   0.0108   0.7227   0.4406
  -1.000  -0.1869   0.00557   0.00106   0.0110   0.6948   0.4966
  -0.500  -0.1317   0.00539   0.00099   0.0113   0.6617   0.5542
  -0.000  -0.0766   0.00525   0.00093   0.0116   0.6231   0.6128
