  
       XFOIL         Version 6.99
  
 Calculated polar for: NACA 0012                                       
  
 1 1 Reynolds number fixed          Mach number fixed         
  
 xtrf =   1.000 (top)        1.000 (bottom)  
 Mach =   0.000     Re =     1.521 e 6     Ncrit =   9.000
  
   alpha    CL        CD       CDp       CM     Top_Xtr  Bot_Xtr
  ------ -------- --------- --------- -------- -------- --------
 -12.000  -0.3906   0.01122   0.00564  -0.1391   0.7703   0.0381
 -11.500  -0.3337   0.01066   0.00507  -0.1399   0.7711   0.0445
 -11.000  -0.2766   0.01018   0.00461  -0.1407   0.7720   0.0526
 -10.500  -0.2193   0.00975   0.00422  -0.1415   0.7730   0.0638
 -10.000  -0.1621   0.00935   0.00390  -0.1423   0.7739   0.0804
  -9.500  -0.1047   0.00903   0.00367  -0.1430   0.7749   0.1005
  -9.000  -0.0472   0.00874   0.00349  -0.1438   0.7760   0.1261
  -8.500   0.0103   0.00848   0.00337  -0.1445   0.7770   0.1587
  -8.000   0.0678   0.00826   0.00330  -0.1452   0.7781   0.1954
  -7.500   0.1255   0.00809   0.00328  -0.1458   0.7792   0.2344
  -7.000   0.1834   0.00799   0.00330  -0.1465   0.7803   0.2708
  -6.500   0.2414   0.00781   0.00324  -0.1470   0.7801   0.3081
  -6.000   0.3005   0.00737   0.00284  -0.1475   0.7752   0.3440
  -5.500   0.3585   0.00727   0.00279  -0.1479   0.7714   0.3766
  -5.000   0.4161   0.00722   0.00283  -0.1482   0.7691   0.4069
  -4.500   0.4749   0.00688   0.00259  -0.1486   0.7667   0.4358
  -4.000   0.5335   0.00660   0.00237  -0.1489   0.7626   0.4610
  -3.500   0.5921   0.00633   0.00214  -0.1491   0.7574   0.4854
  -3.000   0.6498   0.00619   0.00206  -0.1492   0.7518   0.5073
  -2.500   0.7075   0.00589   0.00183  -0.1493   0.7438   0.5270
  -2.000   0.7648   0.00570   0.00171  -0.1492   0.7299   0.5451
  -1.500   0.7846   0.00744   0.00256  -0.1420   0.4838   0.5592
  -1.000   0.8175   0.00840   0.00314  -0.1374   0.3855   0.5730
  -0.500   0.8505   0.00924   0.00368  -0.1328   0.3095   0.5856
  -0.000   0.8776   0.01004   0.00425  -0.1269   0.2507   0.5975
