  
       XFOIL         Version 6.99
  
 Calculated polar for: NACA 2412                                       
  
 1 1 Reynolds number fixed          Mach number fixed         
  
 xtrf =   1.000 (top)        1.000 (bottom)  
 Mach =   0.000     Re =     2.332 e 6     Ncrit =   9.000
  
   alpha    CL        CD       CDp       CM     Top_Xtr  Bot_Xtr
  ------ -------- --------- --------- -------- -------- --------
 -15.000  -0.4305   0.01271   0.00793  -0.1935   0.7495   0.0176
 -14.500  -0.3739   0.01212   0.00731  -0.1948   0.7500   0.0189
 -14.000  -0.3170   0.01169   0.00684  -0.1959   0.7505   0.0198
 -13.500  -0.2600   0.01112   0.00624  -0.1971   0.7511   0.0217
 -13.000  -0.2027   0.01076   0.00586  -0.1981   0.7516   0.0233
 -12.500  -0.1453   0.01038   0.00547  -0.1991   0.7521   0.0258
 -12.000  -0.0877   0.01012   0.00520  -0.2001   0.7527   0.0281
 -11.500  -0.0300   0.00981   0.00490  -0.2010   0.7533   0.0319
 -11.000   0.0279   0.00958   0.00468  -0.2019   0.7539   0.0360
 -10.500   0.0858   0.00940   0.00451  -0.2027   0.7545   0.0409
 -10.000   0.1437   0.00923   0.00437  -0.2036   0.7551   0.0476
  -9.500   0.2016   0.00908   0.00426  -0.2044   0.7558   0.0572
  -9.000   0.2600   0.00885   0.00410  -0.2052   0.7559   0.0696
  -8.500   0.3191   0.00853   0.00382  -0.2060   0.7554   0.0842
  -8.000   0.3782   0.00824   0.00360  -0.2069   0.7553   0.1051
  -7.500   0.4372   0.00801   0.00344  -0.2077   0.7558   0.1270
  -7.000   0.4966   0.00783   0.00334  -0.2086   0.7583   0.1573
  -6.500   0.5556   0.00764   0.00325  -0.2094   0.7588   0.1892
  -6.000   0.6149   0.00739   0.00308  -0.2102   0.7587   0.2235
  -5.500   0.6743   0.00709   0.00288  -0.2109   0.7582   0.2594
  -5.000   0.7335   0.00680   0.00269  -0.2116   0.7572   0.2960
  -4.500   0.7924   0.00652   0.00251  -0.2122   0.7556   0.3344
  -4.000   0.8512   0.00624   0.00232  -0.2127   0.7531   0.3736
  -3.500   0.9099   0.00595   0.00211  -0.2132   0.7496   0.4150
  -3.000   0.9674   0.00588   0.00212  -0.2135   0.7446   0.4583
  -2.500   1.0248   0.00553   0.00188  -0.2136   0.7400   0.4940
  -2.000   1.0820   0.00529   0.00172  -0.2137   0.7284   0.5242
  -1.500   1.0850   0.00737   0.00297  -0.2029   0.5202   0.5416
  -1.000   1.1054   0.00823   0.00363  -0.1955   0.4628   0.5587
  -0.500   1.1287   0.00921   0.00448  -0.1890   0.4190   0.5738
  -0.000   1.1525   0.01044   0.00556  -0.1831   0.3767   0.5866
   1.000   1.1999   0.01352   0.00826  -0.1721   0.2779   0.6089
   1.500   1.2275   0.01493   0.00943  -0.1674   0.2270   0.6173
   2.000   1.2578   0.01620   0.01047  -0.1631   0.1767   0.6263
   2.500   1.2905   0.01735   0.01139  -0.1592   0.1333   0.6334
   3.000   1.3254   0.01843   0.01230  -0.1557   0.0989   0.6402
   3.500   1.3624   0.01940   0.01314  -0.1525   0.0755   0.6466
   4.000   1.4003   0.02035   0.01398  -0.1495   0.0580   0.6519
   4.500   1.4386   0.02128   0.01485  -0.1467   0.0468   0.6572
   5.000   1.4758   0.02227   0.01579  -0.1437   0.0380   0.6613
   5.500   1.5132   0.02327   0.01676  -0.1408   0.0323   0.6647
   6.000   1.5505   0.02427   0.01776  -0.1379   0.0279   0.6674
   6.500   1.5868   0.02534   0.01883  -0.1349   0.0243   0.6701
   7.000   1.6210   0.02654   0.02002  -0.1317   0.0212   0.6729
   7.500   1.6555   0.02772   0.02124  -0.1287   0.0196   0.6758
   8.000   1.6874   0.02908   0.02261  -0.1253   0.0173   0.6776
   8.500   1.7201   0.03037   0.02396  -0.1221   0.0163   0.6794
   9.000   1.7490   0.03195   0.02556  -0.1185   0.0149   0.6813
   9.500   1.7769   0.03362   0.02729  -0.1148   0.0137   0.6837
  10.000   1.8046   0.03528   0.02902  -0.1113   0.0131   0.6859
  10.500   1.8289   0.03722   0.03102  -0.1074   0.0123   0.6872
  11.000   1.8490   0.03953   0.03341  -0.1032   0.0112   0.6888
  11.500   1.8708   0.04173   0.03571  -0.0995   0.0109   0.6906
  12.000   1.8920   0.04399   0.03805  -0.0957   0.0104   0.6924
  12.500   1.9076   0.04681   0.04095  -0.0917   0.0099   0.6941
  13.000   1.9216   0.04984   0.04408  -0.0877   0.0094   0.6954
  13.500   1.9249   0.05393   0.04832  -0.0832   0.0088   0.6967
  14.000   1.9344   0.05761   0.05212  -0.0796   0.0086   0.6982
  14.500   1.9408   0.06177   0.05641  -0.0762   0.0084   0.6997
  15.000   1.9431   0.06659   0.06138  -0.0733   0.0082   0.7010
  15.500   1.9404   0.07238   0.06733  -0.0710   0.0080   0.7020
  16.000   1.9336   0.07908   0.07420  -0.0696   0.0078   0.7030
  16.500   1.9215   0.08683   0.08212  -0.0692   0.0076   0.7039
  17.000   1.9030   0.09565   0.09113  -0.0698   0.0074   0.7048
  17.500   1.8785   0.10562   0.10130  -0.0717   0.0072   0.7057
  18.000   1.8472   0.11695   0.11286  -0.0751   0.0070   0.7064
  18.500   1.8094   0.12973   0.12589  -0.0803   0.0068   0.7068
  19.000   1.7722   0.14302   0.13942  -0.0871   0.0067   0.7073
  19.500   1.7464   0.15462   0.15122  -0.0937   0.0067   0.7079
  20.000   1.7159   0.16748   0.16430  -0.1021   0.0066   0.7083
  20.500   1.6864   0.18067   0.17769  -0.1114   0.0066   0.7088
  21.000   1.6528   0.19530   0.19255  -0.1227   0.0065   0.7091
  21.500   1.6185   0.21078   0.20824  -0.1354   0.0065   0.7094
  22.000   1.5873   0.22607   0.22373  -0.1484   0.0064   0.7097
  22.500   1.5654   0.23969   0.23750  -0.1603   0.0063   0.7100
  23.000   1.5427   0.25430   0.25228  -0.1733   0.0062   0.7104
  23.500   1.5295   0.26664   0.26474  -0.1845   0.0061   0.7109
  24.000   1.5195   0.27836   0.27658  -0.1952   0.0059   0.7116
  24.500   1.5117   0.28972   0.28803  -0.2056   0.0057   0.7122
  25.000   1.5056   0.30087   0.29926  -0.2159   0.0054   0.7126
