  
       XFOIL         Version 6.99
  
 Calculated polar for: NACA 0012                                       
  
 1 1 Reynolds number fixed          Mach number fixed         
  
 xtrf =   1.000 (top)        1.000 (bottom)  
 Mach =   0.000     Re =     2.332 e 6     Ncrit =   9.000
  
   alpha    CL        CD       CDp       CM     Top_Xtr  Bot_Xtr
  ------ -------- --------- --------- -------- -------- --------
 -12.000  -1.4602   0.01705   0.01187   0.0161   1.0000   0.0132
 -11.500  -1.4176   0.01626   0.01103   0.0180   1.0000   0.0136
 -11.000  -1.3764   0.01523   0.00994   0.0202   1.0000   0.0148
 -10.500  -1.3314   0.01446   0.00915   0.0218   1.0000   0.0159
 -10.000  -1.2842   0.01382   0.00847   0.0232   1.0000   0.0166
  -9.500  -1.2378   0.01303   0.00767   0.0247   1.0000   0.0184
  -9.000  -1.1891   0.01244   0.00706   0.0259   1.0000   0.0198
  -8.500  -1.1406   0.01179   0.00641   0.0271   1.0000   0.0219
  -8.000  -1.0908   0.01127   0.00589   0.0282   1.0000   0.0238
  -7.500  -1.0415   0.01070   0.00534   0.0294   1.0000   0.0272
  -7.000  -0.9920   0.01020   0.00486   0.0306   1.0000   0.0307
  -6.500  -0.9431   0.00975   0.00443   0.0321   1.0000   0.0349
  -6.000  -0.8906   0.00928   0.00401   0.0327   0.9989   0.0413
  -5.500  -0.8237   0.00876   0.00357   0.0301   0.9897   0.0511
  -5.000  -0.7627   0.00834   0.00317   0.0290   0.9395   0.0633
  -4.500  -0.7175   0.00844   0.00278   0.0315   0.7426   0.0799
  -4.000  -0.6638   0.00811   0.00248   0.0319   0.7215   0.1015
  -3.500  -0.6102   0.00772   0.00219   0.0324   0.7106   0.1326
  -3.000  -0.5559   0.00732   0.00194   0.0327   0.7013   0.1697
  -2.500  -0.5016   0.00691   0.00171   0.0331   0.6914   0.2159
  -2.000  -0.4470   0.00652   0.00150   0.0334   0.6779   0.2658
  -1.500  -0.3923   0.00615   0.00130   0.0336   0.6596   0.3208
  -0.500  -0.2823   0.00559   0.00101   0.0341   0.6082   0.4346
  -0.000  -0.2272   0.00537   0.00091   0.0343   0.5764   0.4955
