  
       XFOIL         Version 6.99
  
 Calculated polar for: NACA 0012                                       
  
 1 1 Reynolds number fixed          Mach number fixed         
  
 xtrf =   1.000 (top)        1.000 (bottom)  
 Mach =   0.000     Re =     2.332 e 6     Ncrit =   9.000
  
   alpha    CL        CD       CDp       CM     Top_Xtr  Bot_Xtr
  ------ -------- --------- --------- -------- -------- --------
 -12.000  -1.6895   0.02489   0.01915   0.0458   0.7194   0.0112
 -11.500  -1.6609   0.02344   0.01761   0.0492   0.7167   0.0116
 -11.000  -1.6298   0.02219   0.01626   0.0525   0.7140   0.0121
 -10.500  -1.5961   0.02109   0.01509   0.0556   0.7112   0.0124
 -10.000  -1.5654   0.01972   0.01363   0.0593   0.7088   0.0134
  -9.500  -1.5296   0.01873   0.01258   0.0623   0.7061   0.0143
  -9.000  -1.4911   0.01791   0.01169   0.0650   0.7034   0.0150
  -8.500  -1.4530   0.01698   0.01072   0.0679   0.7007   0.0162
  -8.000  -1.4130   0.01617   0.00989   0.0706   0.6976   0.0175
  -7.500  -1.3706   0.01551   0.00919   0.0730   0.6951   0.0184
  -7.000  -1.3290   0.01472   0.00838   0.0755   0.6918   0.0206
  -6.500  -1.2854   0.01412   0.00777   0.0779   0.6887   0.0222
  -6.000  -1.2443   0.01349   0.00714   0.0807   0.6859   0.0252
  -5.500  -1.1985   0.01292   0.00657   0.0827   0.6820   0.0281
  -5.000  -1.1510   0.01237   0.00604   0.0844   0.6779   0.0316
  -4.500  -1.1031   0.01182   0.00552   0.0860   0.6737   0.0372
  -4.000  -1.0543   0.01130   0.00504   0.0875   0.6681   0.0440
  -3.500  -1.0052   0.01078   0.00457   0.0889   0.6618   0.0544
  -3.000  -0.9557   0.01027   0.00415   0.0903   0.6548   0.0680
  -2.500  -0.9058   0.00978   0.00374   0.0916   0.6462   0.0867
  -2.000  -0.8560   0.00927   0.00336   0.0929   0.6367   0.1125
  -1.500  -0.8067   0.00874   0.00298   0.0943   0.6260   0.1484
  -1.000  -0.7573   0.00823   0.00263   0.0956   0.6128   0.1921
  -0.500  -0.7080   0.00771   0.00231   0.0970   0.5981   0.2452
  -0.000  -0.6584   0.00722   0.00203   0.0983   0.5819   0.3032
