  
       XFOIL         Version 6.99
  
 Calculated polar for: NACA 0012                                       
  
 1 1 Reynolds number fixed          Mach number fixed         
  
 xtrf =   1.000 (top)        1.000 (bottom)  
 Mach =   0.000     Re =     1.521 e 6     Ncrit =   9.000
  
   alpha    CL        CD       CDp       CM     Top_Xtr  Bot_Xtr
  ------ -------- --------- --------- -------- -------- --------
 -12.000  -1.4692   0.02028   0.01489   0.0164   0.9999   0.0147
 -11.500  -1.4380   0.01914   0.01368   0.0200   0.9999   0.0154
 -11.000  -1.4027   0.01818   0.01264   0.0232   0.9999   0.0161
 -10.500  -1.3637   0.01716   0.01153   0.0257   0.9999   0.0170
 -10.000  -1.3232   0.01612   0.01046   0.0281   0.9999   0.0184
  -9.500  -1.2783   0.01538   0.00967   0.0298   0.9999   0.0197
  -9.000  -1.2341   0.01448   0.00873   0.0317   0.9999   0.0214
  -8.500  -1.1873   0.01377   0.00800   0.0331   0.9999   0.0232
  -8.000  -1.1401   0.01303   0.00724   0.0346   0.9999   0.0256
  -7.500  -1.0912   0.01244   0.00665   0.0358   0.9999   0.0282
  -7.000  -1.0428   0.01177   0.00599   0.0372   0.9999   0.0322
  -6.500  -0.9934   0.01118   0.00542   0.0384   0.9999   0.0370
  -6.000  -0.9438   0.01063   0.00491   0.0396   0.9999   0.0434
  -5.500  -0.8941   0.01010   0.00444   0.0408   0.9999   0.0519
  -5.000  -0.8342   0.00956   0.00398   0.0398   0.9877   0.0641
  -4.500  -0.7806   0.00954   0.00347   0.0404   0.7536   0.0830
  -4.000  -0.7287   0.00913   0.00309   0.0412   0.7306   0.1076
  -3.500  -0.6763   0.00870   0.00276   0.0418   0.7184   0.1403
  -3.000  -0.6241   0.00825   0.00245   0.0425   0.7084   0.1837
  -2.500  -0.5713   0.00780   0.00218   0.0431   0.6993   0.2338
  -2.000  -0.5183   0.00730   0.00193   0.0437   0.6892   0.2914
  -1.500  -0.4646   0.00685   0.00170   0.0442   0.6774   0.3510
  -1.000  -0.4109   0.00643   0.00149   0.0447   0.6626   0.4149
  -0.500  -0.3571   0.00604   0.00130   0.0452   0.6435   0.4829
  -0.000  -0.3037   0.00564   0.00113   0.0458   0.6206   0.5580
