  
       XFOIL         Version 6.99
  
 Calculated polar for: NACA 2412                                       
  
 1 1 Reynolds number fixed          Mach number fixed         
  
 xtrf =   1.000 (top)        1.000 (bottom)  
 Mach =   0.000     Re =     1.521 e 6     Ncrit =   9.000
  
   alpha    CL        CD       CDp       CM     Top_Xtr  Bot_Xtr
  ------ -------- --------- --------- -------- -------- --------
 -15.000  -1.5521   0.05887   0.05492  -0.0065   0.7291   0.0100
 -14.500  -1.5917   0.04890   0.04463  -0.0064   0.7270   0.0102
 -14.000  -1.6118   0.04262   0.03811  -0.0031   0.7255   0.0104
 -13.500  -1.6157   0.03826   0.03354   0.0009   0.7236   0.0106
 -13.000  -1.6087   0.03501   0.03013   0.0049   0.7211   0.0109
 -12.500  -1.5956   0.03237   0.02732   0.0089   0.7185   0.0112
 -12.000  -1.5783   0.03009   0.02488   0.0130   0.7161   0.0115
 -11.500  -1.5570   0.02813   0.02276   0.0170   0.7134   0.0118
 -11.000  -1.5320   0.02646   0.02092   0.0209   0.7108   0.0121
 -10.500  -1.5027   0.02508   0.01940   0.0245   0.7080   0.0124
 -10.000  -1.4807   0.02303   0.01718   0.0292   0.7052   0.0130
  -9.500  -1.4479   0.02175   0.01579   0.0326   0.7023   0.0137
  -9.000  -1.4109   0.02069   0.01467   0.0357   0.6992   0.0143
  -8.500  -1.3721   0.01974   0.01361   0.0386   0.6959   0.0149
  -8.000  -1.3321   0.01894   0.01272   0.0414   0.6929   0.0153
  -7.500  -1.2956   0.01767   0.01137   0.0448   0.6892   0.0166
  -7.000  -1.2511   0.01687   0.01052   0.0470   0.6859   0.0176
  -6.500  -1.2048   0.01617   0.00976   0.0488   0.6825   0.0185
  -6.000  -1.1589   0.01526   0.00881   0.0507   0.6784   0.0202
  -5.500  -1.1107   0.01461   0.00812   0.0523   0.6746   0.0217
  -5.000  -1.0622   0.01392   0.00739   0.0539   0.6707   0.0236
  -4.500  -1.0128   0.01328   0.00676   0.0553   0.6654   0.0259
  -4.000  -0.9629   0.01268   0.00613   0.0566   0.6602   0.0289
  -3.500  -0.9121   0.01219   0.00563   0.0578   0.6540   0.0318
  -3.000  -0.8616   0.01162   0.00508   0.0591   0.6470   0.0368
  -2.500  -0.8106   0.01112   0.00461   0.0602   0.6393   0.0431
  -2.000  -0.7592   0.01066   0.00416   0.0613   0.6303   0.0510
  -1.500  -0.7076   0.01023   0.00377   0.0624   0.6209   0.0616
  -1.000  -0.6562   0.00979   0.00339   0.0635   0.6101   0.0780
  -0.000  -0.5530   0.00896   0.00275   0.0655   0.5860   0.1281
   0.500  -0.5021   0.00853   0.00246   0.0666   0.5727   0.1685
   1.000  -0.4511   0.00812   0.00220   0.0677   0.5585   0.2193
   1.500  -0.4007   0.00767   0.00196   0.0689   0.5435   0.2855
   2.000  -0.3514   0.00712   0.00172   0.0702   0.5288   0.3797
   2.500  -0.3172   0.00540   0.00118   0.0741   0.5152   0.7293
   3.000  -0.2590   0.00557   0.00128   0.0740   0.5000   0.7476
   3.500  -0.2012   0.00569   0.00137   0.0739   0.4848   0.7568
   4.000  -0.1429   0.00590   0.00151   0.0737   0.4695   0.7629
   4.500  -0.0848   0.00603   0.00158   0.0734   0.4536   0.7678
   5.000  -0.0267   0.00617   0.00170   0.0731   0.4371   0.7722
   5.500   0.0316   0.00633   0.00183   0.0728   0.4193   0.7752
   6.000   0.0898   0.00653   0.00198   0.0724   0.3987   0.7781
   6.500   0.1480   0.00688   0.00226   0.0721   0.3739   0.7814
   7.000   0.2059   0.00706   0.00235   0.0716   0.3451   0.7814
   7.500   0.2635   0.00722   0.00240   0.0710   0.3138   0.7808
   8.000   0.3206   0.00748   0.00252   0.0705   0.2766   0.7800
   8.500   0.3774   0.00778   0.00269   0.0700   0.2381   0.7792
   9.000   0.4336   0.00819   0.00293   0.0695   0.1954   0.7784
   9.500   0.4893   0.00866   0.00324   0.0690   0.1545   0.7775
  10.000   0.5445   0.00919   0.00361   0.0685   0.1183   0.7766
  10.500   0.5993   0.00973   0.00402   0.0681   0.0898   0.7757
  11.000   0.6538   0.01029   0.00448   0.0677   0.0689   0.7749
  11.500   0.7082   0.01084   0.00497   0.0673   0.0550   0.7741
  12.000   0.7619   0.01145   0.00551   0.0670   0.0443   0.7733
  12.500   0.8152   0.01206   0.00611   0.0666   0.0371   0.7725
  13.000   0.8682   0.01268   0.00673   0.0663   0.0325   0.7717
  13.500   0.9205   0.01334   0.00742   0.0660   0.0286   0.7710
  14.000   0.9713   0.01414   0.00825   0.0658   0.0254   0.7703
  14.500   1.0217   0.01492   0.00906   0.0656   0.0231   0.7695
  15.000   1.0702   0.01588   0.01008   0.0655   0.0210   0.7688
  15.500   1.1183   0.01680   0.01105   0.0653   0.0194   0.7681
  16.000   1.1615   0.01818   0.01251   0.0654   0.0177   0.7674
  16.500   1.2059   0.01929   0.01372   0.0654   0.0169   0.7667
  17.000   1.2461   0.02073   0.01524   0.0653   0.0159   0.7661
  17.500   1.2761   0.02324   0.01788   0.0648   0.0148   0.7655
  18.000   1.2960   0.02720   0.02201   0.0615   0.0143   0.7648
  18.500   1.3110   0.03144   0.02638   0.0589   0.0139   0.7646
  19.000   1.3178   0.03635   0.03143   0.0568   0.0135   0.7644
  19.500   1.3177   0.04202   0.03724   0.0545   0.0131   0.7642
  20.000   1.3093   0.04881   0.04417   0.0517   0.0128   0.7640
  20.500   1.2930   0.05696   0.05248   0.0482   0.0125   0.7637
  21.000   1.2686   0.06670   0.06240   0.0438   0.0122   0.7635
  21.500   1.2347   0.07831   0.07421   0.0385   0.0120   0.7632
  22.000   1.1940   0.09146   0.08756   0.0323   0.0118   0.7630
  22.500   1.1603   0.10401   0.10029   0.0263   0.0117   0.7627
  23.000   1.1312   0.11626   0.11272   0.0203   0.0117   0.7625
  23.500   1.1025   0.12884   0.12546   0.0139   0.0116   0.7623
  24.000   1.0780   0.14106   0.13784   0.0074   0.0115   0.7620
  24.500   1.0558   0.15338   0.15030   0.0005   0.0113   0.7618
  25.000   1.0385   0.16512   0.16217  -0.0065   0.0111   0.7616
