  
       XFOIL         Version 6.99
  
 Calculated polar for: NACA 2412                                       
  
 1 1 Reynolds number fixed          Mach number fixed         
  
 xtrf =   1.000 (top)        1.000 (bottom)  
 Mach =   0.000     Re =     2.332 e 6     Ncrit =   9.000
  
   alpha    CL        CD       CDp       CM     Top_Xtr  Bot_Xtr
  ------ -------- --------- --------- -------- -------- --------
 -15.000   0.0470   0.05689   0.05331  -0.2433   0.7517   0.0262
 -14.500   0.1038   0.05750   0.05388  -0.2452   0.7517   0.0293
 -14.000   0.1566   0.05821   0.05455  -0.2460   0.7518   0.0315
 -13.500   0.2106   0.05889   0.05523  -0.2470   0.7518   0.0360
 -13.000   0.2633   0.05960   0.05594  -0.2475   0.7518   0.0409
 -12.500   0.3152   0.06034   0.05667  -0.2478   0.7518   0.0470
 -12.000   0.3631   0.05653   0.05285  -0.2477   0.7531   0.0537
 -11.500   0.3878   0.05771   0.05405  -0.2438   0.7535   0.0594
 -11.000   0.4175   0.05894   0.05532  -0.2406   0.7541   0.0691
 -10.500   0.4589   0.05988   0.05630  -0.2391   0.7544   0.0810
 -10.000   0.5042   0.06069   0.05715  -0.2380   0.7546   0.0974
  -9.500   0.5492   0.06149   0.05802  -0.2368   0.7547   0.1178
  -9.000   0.5951   0.06225   0.05884  -0.2357   0.7548   0.1388
  -8.500   0.6411   0.06298   0.05964  -0.2345   0.7549   0.1628
  -8.000   0.6893   0.06361   0.06034  -0.2336   0.7548   0.1903
  -7.500   0.7378   0.06420   0.06100  -0.2327   0.7546   0.2165
  -7.000   0.7911   0.06458   0.06146  -0.2324   0.7542   0.2474
  -6.500   0.8535   0.06472   0.06168  -0.2333   0.7535   0.2784
  -6.000   0.9451   0.06504   0.06208  -0.2384   0.7524   0.3162
  -5.500   0.9855   0.06827   0.06539  -0.2360   0.7517   0.3400
  -5.000   0.9702   0.06640   0.06360  -0.2259   0.7467   0.3546
  -4.500   1.0491   0.06342   0.06067  -0.2287   0.7372   0.3827
  -4.000   1.1623   0.05762   0.05493  -0.2365   0.7335   0.4209
  -3.500   1.2090   0.05716   0.05397  -0.2355   0.6131   0.4436
  -3.000   1.2292   0.05919   0.05536  -0.2302   0.4933   0.4622
  -2.000   1.3069   0.06059   0.05628  -0.2248   0.3873   0.4961
  -1.500   1.3481   0.06095   0.05635  -0.2224   0.3271   0.5100
  -1.000   1.3964   0.06044   0.05543  -0.2210   0.2550   0.5215
  -0.500   1.4376   0.06054   0.05518  -0.2184   0.1907   0.5328
  -0.000   1.4771   0.06084   0.05518  -0.2156   0.1382   0.5415
   0.500   1.5159   0.06119   0.05529  -0.2127   0.0965   0.5505
   1.000   1.5550   0.06161   0.05553  -0.2099   0.0698   0.5567
   1.500   1.5940   0.06208   0.05591  -0.2070   0.0536   0.5648
   2.000   1.6322   0.06261   0.05636  -0.2040   0.0419   0.5714
   2.500   1.6696   0.06321   0.05692  -0.2010   0.0342   0.5764
   3.000   1.7058   0.06390   0.05759  -0.1978   0.0285   0.5829
   3.500   1.7406   0.06470   0.05837  -0.1944   0.0239   0.5881
   4.000   1.7746   0.06560   0.05928  -0.1910   0.0214   0.5925
   4.500   1.8073   0.06661   0.06030  -0.1874   0.0189   0.5969
   5.000   1.8385   0.06771   0.06143  -0.1837   0.0170   0.6015
   5.500   1.8684   0.06891   0.06267  -0.1798   0.0154   0.6056
   6.000   1.8974   0.07017   0.06397  -0.1759   0.0142   0.6093
   6.500   1.9232   0.07167   0.06550  -0.1716   0.0126   0.6120
   7.000   1.9504   0.07313   0.06703  -0.1676   0.0121   0.6157
   7.500   1.9746   0.07482   0.06878  -0.1634   0.0113   0.6184
   8.000   1.9937   0.07698   0.07100  -0.1586   0.0103   0.6208
   8.500   2.0093   0.07952   0.07365  -0.1537   0.0098   0.6233
   9.000   2.0282   0.08171   0.07593  -0.1492   0.0094   0.6261
   9.500   2.0451   0.08412   0.07842  -0.1448   0.0089   0.6286
  10.000   2.0546   0.08737   0.08176  -0.1398   0.0085   0.6302
  10.500   2.0613   0.09093   0.08544  -0.1350   0.0079   0.6325
  11.000   2.0628   0.09513   0.08979  -0.1301   0.0076   0.6340
  11.500   2.0679   0.09907   0.09385  -0.1260   0.0074   0.6354
  12.000   2.0686   0.10364   0.09858  -0.1222   0.0072   0.6365
  12.500   2.0675   0.10862   0.10371  -0.1190   0.0070   0.6378
  13.000   2.0635   0.11415   0.10938  -0.1165   0.0068   0.6392
  13.500   2.0578   0.12001   0.11540  -0.1148   0.0066   0.6408
  14.000   2.0491   0.12642   0.12196  -0.1140   0.0064   0.6428
  14.500   2.0364   0.13349   0.12920  -0.1143   0.0062   0.6448
  15.000   2.0193   0.14143   0.13733  -0.1159   0.0059   0.6460
  15.500   1.9968   0.15048   0.14661  -0.1192   0.0057   0.6469
  16.000   1.9785   0.15911   0.15544  -0.1232   0.0056   0.6476
  16.500   1.9654   0.16701   0.16352  -0.1276   0.0056   0.6482
  17.000   1.9507   0.17533   0.17203  -0.1328   0.0055   0.6487
  17.500   1.9329   0.18433   0.18121  -0.1393   0.0054   0.6492
  18.000   1.9118   0.19418   0.19126  -0.1473   0.0054   0.6497
  18.500   1.8880   0.20493   0.20222  -0.1567   0.0053   0.6501
  19.000   1.8602   0.21694   0.21445  -0.1680   0.0052   0.6504
  19.500   1.8296   0.23010   0.22783  -0.1810   0.0052   0.6507
  20.000   1.7991   0.24386   0.24181  -0.1951   0.0051   0.6510
  20.500   1.7680   0.25853   0.25669  -0.2106   0.0050   0.6512
  21.000   1.7458   0.27141   0.26974  -0.2244   0.0050   0.6515
  21.500   1.7238   0.28492   0.28342  -0.2391   0.0048   0.6518
  22.000   1.7099   0.29633   0.29495  -0.2515   0.0047   0.6523
  22.500   1.6992   0.30704   0.30577  -0.2634   0.0045   0.6528
  23.000   1.6906   0.31738   0.31620  -0.2748   0.0042   0.6533
  23.500   1.6801   0.32931   0.32827  -0.2880   0.0039   0.6538
