  
       XFOIL         Version 6.99
  
 Calculated polar for: NACA 0012                                       
  
 1 1 Reynolds number fixed          Mach number fixed         
  
 xtrf =   1.000 (top)        1.000 (bottom)  
 Mach =   0.000     Re =     1.521 e 6     Ncrit =   9.000
  
   alpha    CL        CD       CDp       CM     Top_Xtr  Bot_Xtr
  ------ -------- --------- --------- -------- -------- --------
 -12.000  -1.7652   0.04426   0.03864   0.0595   0.6961   0.0111
 -11.500  -1.7553   0.04105   0.03526   0.0641   0.6941   0.0114
 -11.000  -1.7435   0.03804   0.03212   0.0689   0.6921   0.0121
 -10.500  -1.7221   0.03588   0.02985   0.0729   0.6902   0.0126
 -10.000  -1.6980   0.03395   0.02782   0.0768   0.6878   0.0132
  -9.500  -1.6701   0.03230   0.02607   0.0804   0.6850   0.0137
  -9.000  -1.6435   0.03054   0.02419   0.0843   0.6830   0.0144
  -8.500  -1.6140   0.02896   0.02254   0.0879   0.6811   0.0155
  -8.000  -1.5807   0.02765   0.02117   0.0911   0.6778   0.0164
  -7.500  -1.5455   0.02649   0.01993   0.0942   0.6748   0.0171
  -7.000  -1.5114   0.02515   0.01854   0.0975   0.6725   0.0188
  -6.500  -1.4733   0.02413   0.01747   0.1003   0.6704   0.0202
  -6.000  -1.4349   0.02310   0.01640   0.1031   0.6665   0.0221
  -5.500  -1.3955   0.02214   0.01543   0.1058   0.6628   0.0243
  -5.000  -1.3552   0.02123   0.01449   0.1085   0.6595   0.0268
  -4.500  -1.3134   0.02043   0.01368   0.1109   0.6558   0.0298
  -4.000  -1.2720   0.01959   0.01287   0.1134   0.6507   0.0345
  -3.500  -1.2298   0.01881   0.01210   0.1159   0.6458   0.0401
  -3.000  -1.1873   0.01805   0.01138   0.1182   0.6405   0.0478
  -2.500  -1.1449   0.01730   0.01068   0.1207   0.6339   0.0579
  -2.000  -1.1029   0.01656   0.00998   0.1232   0.6269   0.0725
  -1.500  -1.0616   0.01577   0.00932   0.1258   0.6194   0.0929
  -1.000  -1.0217   0.01494   0.00862   0.1287   0.6107   0.1218
  -0.500  -0.9845   0.01398   0.00786   0.1319   0.6017   0.1609
  -0.000  -0.9498   0.01293   0.00699   0.1356   0.5913   0.2073
