  
       XFOIL         Version 6.99
  
 Calculated polar for: NACA 2412                                       
  
 1 1 Reynolds number fixed          Mach number fixed         
  
 xtrf =   1.000 (top)        1.000 (bottom)  
 Mach =   0.000     Re =     1.521 e 6     Ncrit =   9.000
  
   alpha    CL        CD       CDp       CM     Top_Xtr  Bot_Xtr
  ------ -------- --------- --------- -------- -------- --------
 -15.000  -1.2602   0.02407   0.02008  -0.0703   1.0000   0.0126
 -14.500  -1.2323   0.02241   0.01829  -0.0675   1.0000   0.0129
 -14.000  -1.2042   0.02103   0.01678  -0.0640   1.0000   0.0133
 -13.500  -1.1761   0.01991   0.01554  -0.0600   1.0000   0.0136
 -13.000  -1.1505   0.01832   0.01379  -0.0558   0.9997   0.0141
 -12.500  -1.0936   0.01689   0.01228  -0.0575   0.9976   0.0150
 -12.000  -1.0333   0.01589   0.01119  -0.0595   0.9956   0.0158
 -11.500  -0.9707   0.01506   0.01028  -0.0617   0.9941   0.0166
 -11.000  -0.9138   0.01379   0.00892  -0.0629   0.9905   0.0178
 -10.500  -0.8518   0.01299   0.00807  -0.0649   0.9878   0.0190
 -10.000  -0.7876   0.01234   0.00735  -0.0671   0.9855   0.0200
  -9.500  -0.7277   0.01144   0.00641  -0.0685   0.9814   0.0222
  -9.000  -0.6712   0.01090   0.00583  -0.0688   0.9726   0.0237
  -8.500  -0.6199   0.01021   0.00510  -0.0679   0.9604   0.0263
  -8.000  -0.5673   0.00978   0.00460  -0.0672   0.9474   0.0284
  -7.500  -0.5148   0.00926   0.00406  -0.0665   0.9331   0.0322
  -7.000  -0.4610   0.00882   0.00358  -0.0660   0.9196   0.0365
  -6.500  -0.4063   0.00843   0.00316  -0.0657   0.9070   0.0419
  -6.000  -0.3511   0.00807   0.00279  -0.0655   0.8944   0.0491
  -5.500  -0.2955   0.00773   0.00246  -0.0654   0.8816   0.0590
  -5.000  -0.2395   0.00743   0.00217  -0.0653   0.8686   0.0713
  -4.500  -0.1836   0.00712   0.00190  -0.0652   0.8551   0.0905
  -4.000  -0.1276   0.00684   0.00167  -0.0652   0.8409   0.1148
  -3.500  -0.0714   0.00657   0.00148  -0.0651   0.8258   0.1458
  -3.000  -0.0152   0.00633   0.00132  -0.0651   0.8092   0.1828
  -2.500   0.0411   0.00609   0.00118  -0.0651   0.7904   0.2284
  -2.000   0.0972   0.00589   0.00108  -0.0651   0.7676   0.2796
  -1.500   0.1528   0.00572   0.00100  -0.0650   0.7371   0.3375
  -1.000   0.2070   0.00563   0.00095  -0.0645   0.6856   0.4112
  -0.500   0.2609   0.00552   0.00097  -0.0642   0.6417   0.5107
  -0.000   0.3153   0.00547   0.00103  -0.0638   0.6029   0.5987
   0.500   0.3701   0.00550   0.00111  -0.0635   0.5675   0.6691
   1.000   0.4253   0.00557   0.00120  -0.0633   0.5346   0.7165
   1.500   0.4788   0.00552   0.00131  -0.0627   0.5044   0.7997
   2.000   0.5273   0.00541   0.00149  -0.0606   0.4770   0.9300
   2.500   0.5880   0.00563   0.00165  -0.0614   0.4476   0.9818
   3.000   0.6599   0.00594   0.00182  -0.0650   0.4142   0.9955
   3.500   0.7259   0.00629   0.00201  -0.0673   0.3749   1.0000
   4.000   0.7742   0.00668   0.00222  -0.0658   0.3346   1.0000
   4.500   0.8220   0.00717   0.00250  -0.0642   0.2880   1.0000
   5.000   0.8699   0.00775   0.00285  -0.0627   0.2384   1.0000
   5.500   0.9176   0.00844   0.00328  -0.0612   0.1863   1.0000
   6.000   0.9654   0.00918   0.00377  -0.0599   0.1404   1.0000
   6.500   1.0135   0.00990   0.00430  -0.0586   0.1042   1.0000
   7.000   1.0614   0.01063   0.00487  -0.0573   0.0771   1.0000
   7.500   1.1099   0.01129   0.00544  -0.0562   0.0604   1.0000
   8.000   1.1576   0.01199   0.00606  -0.0549   0.0476   1.0000
   8.500   1.2050   0.01267   0.00670  -0.0536   0.0397   1.0000
   9.000   1.2514   0.01339   0.00740  -0.0521   0.0336   1.0000
   9.500   1.2962   0.01417   0.00817  -0.0505   0.0290   1.0000
  10.000   1.3402   0.01494   0.00895  -0.0487   0.0259   1.0000
  10.500   1.3824   0.01575   0.00980  -0.0467   0.0233   1.0000
  11.000   1.4196   0.01676   0.01083  -0.0439   0.0208   1.0000
  11.500   1.4546   0.01764   0.01177  -0.0407   0.0196   1.0000
  12.000   1.4859   0.01874   0.01293  -0.0372   0.0182   1.0000
  12.500   1.5134   0.02012   0.01439  -0.0335   0.0169   1.0000
  13.000   1.5429   0.02143   0.01577  -0.0303   0.0160   1.0000
  13.500   1.5676   0.02311   0.01753  -0.0270   0.0150   1.0000
  14.000   1.5827   0.02559   0.02013  -0.0231   0.0140   1.0000
  14.500   1.6050   0.02770   0.02236  -0.0204   0.0136   1.0000
  15.000   1.6227   0.03032   0.02511  -0.0179   0.0131   1.0000
  15.500   1.6361   0.03350   0.02840  -0.0157   0.0126   1.0000
  16.000   1.6432   0.03751   0.03255  -0.0139   0.0121   1.0000
  16.500   1.6367   0.04330   0.03851  -0.0127   0.0115   1.0000
  17.000   1.6334   0.04933   0.04474  -0.0127   0.0113   1.0000
  17.500   1.6311   0.05568   0.05126  -0.0134   0.0111   1.0000
  18.000   1.6208   0.06339   0.05918  -0.0150   0.0108   1.0000
  18.500   1.6035   0.07242   0.06841  -0.0175   0.0106   1.0000
  19.000   1.5796   0.08268   0.07888  -0.0208   0.0105   1.0000
  19.500   1.5490   0.09435   0.09077  -0.0250   0.0103   1.0000
  20.000   1.5138   0.10713   0.10377  -0.0302   0.0102   1.0000
  20.500   1.4754   0.12091   0.11778  -0.0365   0.0101   1.0000
  21.000   1.4369   0.13529   0.13237  -0.0437   0.0100   1.0000
  21.500   1.4013   0.14962   0.14690  -0.0516   0.0099   1.0000
  22.000   1.3696   0.16385   0.16132  -0.0602   0.0098   1.0000
  22.500   1.3418   0.17788   0.17552  -0.0693   0.0097   1.0000
  23.000   1.3179   0.19156   0.18934  -0.0787   0.0095   1.0000
  23.500   1.3007   0.20415   0.20206  -0.0878   0.0092   1.0000
  24.000   1.2884   0.21606   0.21411  -0.0966   0.0090   1.0000
  24.500   1.2778   0.22803   0.22622  -0.1056   0.0089   1.0000
  25.000   1.2630   0.24176   0.24012  -0.1160   0.0086   1.0000
