  
       XFOIL         Version 6.99
  
 Calculated polar for: NACA 2412                                       
  
 1 1 Reynolds number fixed          Mach number fixed         
  
 xtrf =   1.000 (top)        1.000 (bottom)  
 Mach =   0.000     Re =     1.521 e 6     Ncrit =   9.000
  
   alpha    CL        CD       CDp       CM     Top_Xtr  Bot_Xtr
  ------ -------- --------- --------- -------- -------- --------
 -15.000  -1.4995   0.04160   0.03794  -0.0271   0.9999   0.0107
 -14.500  -1.5014   0.03694   0.03308  -0.0251   0.9999   0.0108
 -14.000  -1.4919   0.03367   0.02964  -0.0224   0.9999   0.0109
 -13.500  -1.5038   0.02910   0.02480  -0.0173   0.9999   0.0114
 -13.000  -1.4916   0.02655   0.02210  -0.0129   0.9999   0.0118
 -12.500  -1.4704   0.02471   0.02013  -0.0089   0.9999   0.0121
 -12.000  -1.4452   0.02318   0.01849  -0.0048   0.9999   0.0125
 -11.500  -1.4168   0.02185   0.01704  -0.0008   0.9999   0.0129
 -11.000  -1.3811   0.02066   0.01573   0.0022   0.9999   0.0133
 -10.500  -1.3421   0.01954   0.01450   0.0047   0.9999   0.0137
 -10.000  -1.3052   0.01795   0.01279   0.0074   0.9900   0.0146
  -9.500  -1.2629   0.01754   0.01174   0.0097   0.7436   0.0154
  -9.000  -1.2166   0.01680   0.01087   0.0113   0.7339   0.0162
  -8.500  -1.1700   0.01601   0.00995   0.0128   0.7269   0.0169
  -8.000  -1.1236   0.01506   0.00892   0.0144   0.7216   0.0183
  -7.500  -1.0743   0.01446   0.00823   0.0156   0.7160   0.0194
  -7.000  -1.0247   0.01379   0.00747   0.0168   0.7110   0.0207
  -6.500  -0.9745   0.01320   0.00684   0.0179   0.7062   0.0227
  -6.000  -0.9226   0.01266   0.00626   0.0188   0.7017   0.0245
  -5.500  -0.8711   0.01207   0.00566   0.0197   0.6969   0.0273
  -5.000  -0.8184   0.01152   0.00510   0.0204   0.6923   0.0304
  -4.500  -0.7650   0.01107   0.00464   0.0211   0.6873   0.0337
  -4.000  -0.7118   0.01054   0.00415   0.0217   0.6820   0.0392
  -3.500  -0.6580   0.01007   0.00370   0.0223   0.6753   0.0461
  -3.000  -0.6038   0.00964   0.00331   0.0228   0.6680   0.0547
  -2.500  -0.5498   0.00921   0.00294   0.0233   0.6591   0.0686
  -2.000  -0.4954   0.00881   0.00262   0.0238   0.6488   0.0860
  -1.500  -0.4411   0.00843   0.00232   0.0243   0.6373   0.1107
  -1.000  -0.3868   0.00807   0.00206   0.0247   0.6239   0.1429
  -0.500  -0.3326   0.00771   0.00182   0.0252   0.6088   0.1850
  -0.000  -0.2785   0.00735   0.00163   0.0256   0.5925   0.2379
   0.500  -0.2247   0.00700   0.00146   0.0261   0.5752   0.3036
   1.000  -0.1716   0.00657   0.00130   0.0266   0.5575   0.3952
   1.500  -0.1234   0.00563   0.00103   0.0279   0.5398   0.6030
   2.000  -0.0716   0.00521   0.00102   0.0289   0.5216   0.7618
   2.500  -0.0140   0.00530   0.00106   0.0288   0.5033   0.7763
   3.000   0.0440   0.00540   0.00110   0.0286   0.4849   0.7857
   3.500   0.1018   0.00551   0.00116   0.0284   0.4665   0.7932
   4.000   0.1598   0.00566   0.00124   0.0281   0.4475   0.7984
   4.500   0.2173   0.00577   0.00131   0.0279   0.4272   0.8056
   5.000   0.2748   0.00594   0.00143   0.0277   0.4048   0.8113
   5.500   0.3323   0.00615   0.00155   0.0274   0.3775   0.8153
   6.000   0.3894   0.00640   0.00169   0.0271   0.3448   0.8179
   6.500   0.4464   0.00671   0.00186   0.0267   0.3088   0.8175
   7.000   0.5029   0.00706   0.00207   0.0264   0.2684   0.8170
   7.500   0.5585   0.00751   0.00234   0.0261   0.2239   0.8169
   8.000   0.6134   0.00804   0.00268   0.0259   0.1793   0.8169
   8.500   0.6675   0.00864   0.00308   0.0258   0.1363   0.8169
   9.000   0.7214   0.00923   0.00353   0.0258   0.1031   0.8169
  10.500   0.8809   0.01103   0.00508   0.0257   0.0486   0.8182
  11.000   0.9332   0.01165   0.00567   0.0258   0.0403   0.8192
  11.500   0.9848   0.01229   0.00631   0.0260   0.0342   0.8204
  12.000   1.0358   0.01294   0.00700   0.0261   0.0299   0.8219
  12.500   1.0855   0.01370   0.00778   0.0265   0.0263   0.8237
  13.000   1.1341   0.01449   0.00860   0.0269   0.0235   0.8258
  13.500   1.1818   0.01530   0.00950   0.0274   0.0216   0.8286
  14.000   1.2274   0.01625   0.01049   0.0281   0.0197   0.8320
  15.000   1.3128   0.01828   0.01274   0.0300   0.0171   0.8462
  15.500   1.3475   0.01971   0.01430   0.0317   0.0158   0.8624
  16.000   1.3761   0.02101   0.01587   0.0343   0.0151   0.9055
  16.500   1.3993   0.02258   0.01773   0.0370   0.0145   1.0001
  17.000   1.4186   0.02527   0.02054   0.0377   0.0139   1.0001
  17.500   1.4344   0.02972   0.02512   0.0351   0.0133   1.0001
  18.000   1.4322   0.03568   0.03126   0.0333   0.0127   1.0001
  18.500   1.4313   0.04152   0.03727   0.0316   0.0124   1.0001
  19.000   1.4289   0.04767   0.04358   0.0297   0.0122   1.0001
  19.500   1.4189   0.05491   0.05099   0.0272   0.0120   1.0001
  20.000   1.4022   0.06342   0.05969   0.0240   0.0117   1.0001
  20.500   1.3797   0.07330   0.06976   0.0199   0.0115   1.0001
  21.000   1.3517   0.08433   0.08098   0.0152   0.0114   1.0001
  21.500   1.3180   0.09667   0.09353   0.0097   0.0113   1.0001
  22.000   1.2808   0.11003   0.10710   0.0035   0.0112   1.0001
  22.500   1.2420   0.12415   0.12141  -0.0034   0.0111   1.0001
  23.000   1.2066   0.13818   0.13562  -0.0107   0.0110   1.0001
  23.500   1.1757   0.15204   0.14965  -0.0185   0.0108   1.0001
  24.000   1.1513   0.16505   0.16279  -0.0262   0.0106   1.0001
  24.500   1.1323   0.17751   0.17537  -0.0340   0.0103   1.0001
  25.000   1.1168   0.18962   0.18760  -0.0420   0.0100   1.0001
