  
       XFOIL         Version 6.99
  
 Calculated polar for: NACA 2412                                       
  
 1 1 Reynolds number fixed          Mach number fixed         
  
 xtrf =   1.000 (top)        1.000 (bottom)  
 Mach =   0.000     Re =     1.521 e 6     Ncrit =   9.000
  
   alpha    CL        CD       CDp       CM     Top_Xtr  Bot_Xtr
  ------ -------- --------- --------- -------- -------- --------
  -5.000  -0.2395   0.00743   0.00217  -0.0653   0.8687   0.0713
  -4.500  -0.1836   0.00712   0.00190  -0.0652   0.8551   0.0905
  -4.000  -0.1276   0.00684   0.00167  -0.0652   0.8409   0.1148
  -3.500  -0.0714   0.00657   0.00148  -0.0651   0.8258   0.1458
  -3.000  -0.0152   0.00633   0.00132  -0.0651   0.8093   0.1829
  -2.500   0.0411   0.00609   0.00118  -0.0651   0.7904   0.2283
  -2.000   0.0972   0.00589   0.00108  -0.0651   0.7675   0.2795
  -1.500   0.1528   0.00572   0.00100  -0.0650   0.7371   0.3375
  -1.000   0.2070   0.00563   0.00095  -0.0645   0.6856   0.4112
  -0.500   0.2609   0.00551   0.00097  -0.0642   0.6418   0.5107
   0.000   0.3153   0.00547   0.00103  -0.0638   0.6029   0.5987
   0.500   0.3701   0.00550   0.00111  -0.0635   0.5675   0.6692
   1.000   0.4253   0.00557   0.00120  -0.0633   0.5346   0.7165
   1.500   0.4788   0.00552   0.00131  -0.0627   0.5044   0.7997
   2.000   0.5273   0.00541   0.00149  -0.0606   0.4769   0.9299
   2.500   0.5880   0.00563   0.00165  -0.0614   0.4476   0.9818
   3.000   0.6599   0.00594   0.00182  -0.0650   0.4142   0.9955
   3.500   0.7259   0.00629   0.00201  -0.0673   0.3749   1.0000
   4.000   0.7742   0.00668   0.00222  -0.0658   0.3345   1.0000
   4.500   0.8220   0.00717   0.00250  -0.0642   0.2882   1.0000
   5.000   0.8699   0.00775   0.00285  -0.0627   0.2384   1.0000
   5.500   0.9176   0.00844   0.00328  -0.0612   0.1863   1.0000
   6.000   0.9654   0.00918   0.00377  -0.0599   0.1404   1.0000
   6.500   1.0135   0.00990   0.00430  -0.0586   0.1042   1.0000
   7.000   1.0614   0.01063   0.00487  -0.0573   0.0771   1.0000
   7.500   1.1099   0.01129   0.00544  -0.0562   0.0604   1.0000
   8.000   1.1576   0.01199   0.00606  -0.0549   0.0476   1.0000
   8.500   1.2050   0.01267   0.00670  -0.0536   0.0397   1.0000
   9.000   1.2514   0.01338   0.00740  -0.0521   0.0336   1.0000
   9.500   1.2962   0.01417   0.00817  -0.0505   0.0290   1.0000
  10.000   1.3402   0.01494   0.00895  -0.0487   0.0259   1.0000
  10.500   1.3824   0.01575   0.00980  -0.0467   0.0233   1.0000
  11.000   1.4196   0.01676   0.01083  -0.0439   0.0208   1.0000
  11.500   1.4546   0.01764   0.01177  -0.0407   0.0196   1.0000
  12.000   1.4859   0.01874   0.01293  -0.0372   0.0182   1.0000
  12.500   1.5134   0.02012   0.01439  -0.0335   0.0169   1.0000
  13.000   1.5429   0.02143   0.01577  -0.0303   0.0160   1.0000
  13.500   1.5676   0.02311   0.01753  -0.0270   0.0150   1.0000
  14.000   1.5827   0.02559   0.02013  -0.0231   0.0140   1.0000
  14.500   1.6050   0.02770   0.02236  -0.0204   0.0136   1.0000
  15.000   1.6227   0.03032   0.02511  -0.0179   0.0131   1.0000
