  
       XFOIL         Version 6.99
  
 Calculated polar for: NACA 0012                                       
  
 1 1 Reynolds number fixed          Mach number fixed         
  
 xtrf =   1.000 (top)        1.000 (bottom)  
 Mach =   0.000     Re =     1.521 e 6     Ncrit =   9.000
  
   alpha    CL        CD       CDp       CM     Top_Xtr  Bot_Xtr
  ------ -------- --------- --------- -------- -------- --------
 -12.000  -0.1139   0.01278   0.00757  -0.1802   0.7572   0.0578
 -11.500  -0.0573   0.01252   0.00738  -0.1811   0.7586   0.0696
 -11.000  -0.0038   0.01269   0.00769  -0.1815   0.7614   0.0869
 -10.500   0.0492   0.01290   0.00801  -0.1817   0.7636   0.1072
 -10.000   0.1032   0.01301   0.00824  -0.1820   0.7651   0.1344
  -9.500   0.1572   0.01317   0.00852  -0.1823   0.7664   0.1656
  -9.000   0.2103   0.01350   0.00897  -0.1823   0.7678   0.1981
  -8.500   0.2652   0.01409   0.00966  -0.1826   0.7711   0.2329
  -8.000   0.3237   0.01380   0.00947  -0.1834   0.7713   0.2679
  -7.500   0.3826   0.01350   0.00927  -0.1842   0.7718   0.3022
  -7.000   0.4356   0.01390   0.00977  -0.1839   0.7713   0.3335
  -6.500   0.5123   0.01117   0.00699  -0.1868   0.7589   0.3673
  -6.000   0.5635   0.01179   0.00766  -0.1858   0.7542   0.3927
  -5.500   0.6314   0.01032   0.00622  -0.1878   0.7507   0.4206
  -4.500   0.7611   0.00843   0.00430  -0.1904   0.7434   0.4661
  -4.000   0.8242   0.00761   0.00352  -0.1915   0.7445   0.4861
  -3.500   0.8833   0.00720   0.00312  -0.1918   0.7396   0.5043
  -3.000   0.9412   0.00657   0.00254  -0.1918   0.7305   0.5208
  -2.500   0.9469   0.00825   0.00352  -0.1816   0.5196   0.5325
  -2.000   0.9355   0.01013   0.00505  -0.1684   0.4195   0.5434
  -1.500   0.9386   0.01263   0.00731  -0.1596   0.3459   0.5541
  -1.000   0.9565   0.01473   0.00916  -0.1536   0.2827   0.5652
  -0.500   0.9818   0.01625   0.01044  -0.1486   0.2220   0.5759
  -0.000   1.0133   0.01740   0.01135  -0.1444   0.1724   0.5857
