  
       XFOIL         Version 6.99
  
 Calculated polar for: NACA 2412                                       
  
 1 1 Reynolds number fixed          Mach number fixed         
  
 xtrf =   1.000 (top)        1.000 (bottom)  
 Mach =   0.000     Re =     1.521 e 6     Ncrit =   9.000
  
   alpha    CL        CD       CDp       CM     Top_Xtr  Bot_Xtr
  ------ -------- --------- --------- -------- -------- --------
 -15.000  -1.5701   0.08521   0.08162   0.0195   0.7017   0.0096
 -14.500  -1.6288   0.06677   0.06277   0.0101   0.7011   0.0096
 -14.000  -1.6643   0.05695   0.05265   0.0109   0.7001   0.0098
 -13.500  -1.6832   0.05038   0.04586   0.0143   0.6987   0.0099
 -13.000  -1.6885   0.04566   0.04095   0.0185   0.6969   0.0102
 -12.500  -1.6856   0.04195   0.03707   0.0229   0.6952   0.0104
 -12.000  -1.6770   0.03885   0.03380   0.0274   0.6934   0.0107
 -11.500  -1.6638   0.03614   0.03093   0.0318   0.6916   0.0109
 -11.000  -1.6466   0.03376   0.02841   0.0362   0.6893   0.0112
 -10.500  -1.6246   0.03172   0.02622   0.0403   0.6868   0.0115
 -10.000  -1.5989   0.02998   0.02433   0.0441   0.6849   0.0118
  -9.500  -1.5781   0.02772   0.02188   0.0487   0.6831   0.0123
  -9.000  -1.5492   0.02602   0.02010   0.0525   0.6799   0.0130
  -8.500  -1.5150   0.02473   0.01873   0.0558   0.6771   0.0135
  -8.000  -1.4788   0.02353   0.01743   0.0588   0.6748   0.0141
  -7.500  -1.4405   0.02247   0.01627   0.0617   0.6724   0.0146
  -7.000  -1.4029   0.02113   0.01483   0.0647   0.6685   0.0155
  -6.500  -1.3617   0.02012   0.01378   0.0672   0.6649   0.0165
  -6.000  -1.3187   0.01926   0.01286   0.0695   0.6618   0.0175
  -5.500  -1.2749   0.01843   0.01196   0.0718   0.6580   0.0185
  -5.000  -1.2306   0.01755   0.01106   0.0739   0.6532   0.0203
  -4.500  -1.1849   0.01686   0.01033   0.0759   0.6487   0.0216
  -4.000  -1.1389   0.01609   0.00952   0.0779   0.6436   0.0238
  -3.500  -1.0921   0.01547   0.00890   0.0797   0.6376   0.0259
  -3.000  -1.0456   0.01480   0.00820   0.0817   0.6310   0.0291
  -2.500  -0.9984   0.01423   0.00763   0.0835   0.6242   0.0320
  -2.000  -0.9516   0.01363   0.00703   0.0853   0.6161   0.0369
  -1.500  -0.9050   0.01305   0.00649   0.0873   0.6081   0.0432
  -1.000  -0.8585   0.01250   0.00595   0.0892   0.5986   0.0512
  -0.500  -0.8124   0.01196   0.00544   0.0912   0.5890   0.0616
  -0.000  -0.7672   0.01141   0.00494   0.0934   0.5783   0.0772
   0.500  -0.7231   0.01085   0.00447   0.0958   0.5674   0.0972
   1.000  -0.6840   0.01031   0.00403   0.0992   0.5562   0.1248
   1.500  -0.6443   0.00982   0.00364   0.1026   0.5441   0.1591
   2.000  -0.6028   0.00926   0.00326   0.1055   0.5322   0.2078
   2.500  -0.5614   0.00865   0.00288   0.1085   0.5202   0.2731
   3.000  -0.5207   0.00795   0.00249   0.1115   0.5078   0.3644
   4.500  -0.3841   0.00654   0.00221   0.1180   0.4706   0.7436
   5.000  -0.3248   0.00706   0.00268   0.1177   0.4566   0.7487
   5.500  -0.2674   0.00705   0.00265   0.1175   0.4417   0.7546
   6.000  -0.2084   0.00736   0.00295   0.1171   0.4271   0.7587
   6.500  -0.1492   0.00775   0.00332   0.1167   0.4106   0.7627
   7.000  -0.0911   0.00797   0.00348   0.1163   0.3910   0.7660
   7.500  -0.0336   0.00806   0.00359   0.1161   0.3707   0.7716
   8.000   0.0240   0.00810   0.00353   0.1155   0.3443   0.7705
   8.500   0.0817   0.00818   0.00351   0.1149   0.3167   0.7692
   9.000   0.1393   0.00838   0.00358   0.1142   0.2842   0.7680
   9.500   0.1969   0.00868   0.00376   0.1135   0.2488   0.7670
  10.000   0.2543   0.00912   0.00406   0.1127   0.2098   0.7662
  10.500   0.3115   0.00962   0.00443   0.1120   0.1707   0.7655
  11.000   0.3682   0.01024   0.00491   0.1112   0.1322   0.7649
  11.500   0.4243   0.01076   0.00531   0.1104   0.1019   0.7644
  12.000   0.4792   0.01113   0.00558   0.1098   0.0783   0.7640
  12.500   0.5342   0.01153   0.00591   0.1091   0.0625   0.7636
  13.000   0.5887   0.01203   0.00635   0.1084   0.0495   0.7632
  13.500   0.6431   0.01255   0.00685   0.1076   0.0410   0.7627
  14.000   0.6972   0.01310   0.00739   0.1069   0.0351   0.7622
  14.500   0.7509   0.01366   0.00799   0.1061   0.0311   0.7617
  15.000   0.8039   0.01434   0.00870   0.1052   0.0276   0.7612
  15.500   0.8554   0.01524   0.00963   0.1044   0.0242   0.7607
  16.000   0.9077   0.01595   0.01040   0.1034   0.0226   0.7602
  16.500   0.9570   0.01715   0.01165   0.1022   0.0202   0.7596
  17.000   1.0070   0.01821   0.01280   0.1008   0.0191   0.7591
  17.500   1.0553   0.01960   0.01427   0.0990   0.0178   0.7586
  18.000   1.0982   0.02207   0.01686   0.0957   0.0164   0.7581
  18.500   1.1397   0.02448   0.01939   0.0920   0.0157   0.7575
  19.000   1.1609   0.02841   0.02345   0.0878   0.0151   0.7569
  19.500   1.1714   0.03304   0.02818   0.0846   0.0146   0.7563
  20.000   1.1716   0.03868   0.03393   0.0816   0.0141   0.7556
  20.500   1.1582   0.04604   0.04143   0.0779   0.0136   0.7550
  21.000   1.1400   0.05440   0.04996   0.0737   0.0133   0.7544
  21.500   1.1311   0.06199   0.05770   0.0698   0.0131   0.7539
  22.000   1.1149   0.07083   0.06670   0.0653   0.0130   0.7534
  22.500   1.0930   0.08081   0.07684   0.0603   0.0128   0.7529
  23.000   1.0668   0.09175   0.08794   0.0548   0.0127   0.7525
  23.500   1.0383   0.10342   0.09978   0.0490   0.0125   0.7521
  24.000   1.0111   0.11524   0.11175   0.0430   0.0124   0.7517
  24.500   0.9845   0.12734   0.12400   0.0367   0.0122   0.7513
  25.000   0.9621   0.13919   0.13597   0.0304   0.0120   0.7509
