  
       XFOIL         Version 6.99
  
 Calculated polar for: NACA 0012                                       
  
 1 1 Reynolds number fixed          Mach number fixed         
  
 xtrf =   1.000 (top)        1.000 (bottom)  
 Mach =   0.000     Re =     1.521 e 6     Ncrit =   9.000
  
   alpha    CL        CD       CDp       CM     Top_Xtr  Bot_Xtr
  ------ -------- --------- --------- -------- -------- --------
 -12.000  -0.6762   0.01174   0.00602  -0.0965   0.7882   0.0278
 -11.500  -0.6215   0.01115   0.00540  -0.0969   0.7890   0.0309
 -11.000  -0.5661   0.01067   0.00491  -0.0974   0.7897   0.0345
 -10.500  -0.5106   0.01014   0.00439  -0.0978   0.7905   0.0400
 -10.000  -0.4546   0.00968   0.00395  -0.0983   0.7913   0.0471
  -9.500  -0.3982   0.00924   0.00355  -0.0988   0.7921   0.0564
  -9.000  -0.3417   0.00880   0.00319  -0.0993   0.7928   0.0708
  -8.500  -0.2847   0.00843   0.00289  -0.0998   0.7936   0.0876
  -8.000  -0.2277   0.00804   0.00262  -0.1004   0.7944   0.1126
  -7.500  -0.1704   0.00769   0.00240  -0.1009   0.7952   0.1431
  -7.000  -0.1131   0.00735   0.00222  -0.1015   0.7960   0.1804
  -6.500  -0.0554   0.00706   0.00208  -0.1020   0.7968   0.2210
  -6.000   0.0022   0.00674   0.00189  -0.1025   0.7945   0.2623
  -5.500   0.0597   0.00648   0.00172  -0.1028   0.7906   0.3034
  -5.000   0.1175   0.00634   0.00169  -0.1032   0.7873   0.3435
  -4.500   0.1755   0.00612   0.00160  -0.1036   0.7856   0.3812
  -4.000   0.2337   0.00591   0.00151  -0.1040   0.7832   0.4169
  -3.500   0.2919   0.00573   0.00144  -0.1043   0.7798   0.4500
  -3.000   0.3499   0.00558   0.00137  -0.1045   0.7753   0.4799
  -2.500   0.4078   0.00551   0.00136  -0.1047   0.7691   0.5078
  -2.000   0.4656   0.00534   0.00130  -0.1048   0.7615   0.5328
  -1.500   0.5230   0.00525   0.00127  -0.1048   0.7494   0.5557
  -1.000   0.5677   0.00593   0.00146  -0.1023   0.5883   0.5753
  -0.500   0.6115   0.00681   0.00189  -0.1000   0.4652   0.5926
  -0.000   0.6584   0.00745   0.00222  -0.0981   0.3804   0.6084
