  
       XFOIL         Version 6.99
  
 Calculated polar for: NACA 0012                                       
  
 1 1 Reynolds number fixed          Mach number fixed         
  
 xtrf =   1.000 (top)        1.000 (bottom)  
 Mach =   0.000     Re =     2.332 e 6     Ncrit =   9.000
  
   alpha    CL        CD       CDp       CM     Top_Xtr  Bot_Xtr
  ------ -------- --------- --------- -------- -------- --------
 -12.000  -1.5862   0.01990   0.01470   0.0318   0.9999   0.0121
 -11.500  -1.5535   0.01882   0.01355   0.0351   0.9999   0.0127
 -11.000  -1.5185   0.01788   0.01255   0.0383   0.9999   0.0131
 -10.500  -1.4842   0.01687   0.01147   0.0418   0.9999   0.0138
 -10.000  -1.4480   0.01595   0.01053   0.0451   0.9999   0.0149
  -9.500  -1.4059   0.01520   0.00975   0.0474   0.9999   0.0158
  -9.000  -1.3616   0.01449   0.00899   0.0494   0.9999   0.0167
  -8.000  -1.2718   0.01372   0.00758   0.0532   0.7273   0.0196
  -7.500  -1.2248   0.01306   0.00689   0.0548   0.7205   0.0220
  -7.000  -1.1755   0.01257   0.00636   0.0560   0.7158   0.0239
  -6.500  -1.1264   0.01203   0.00581   0.0573   0.7103   0.0274
  -6.000  -1.0762   0.01152   0.00532   0.0584   0.7062   0.0313
  -5.500  -1.0254   0.01108   0.00487   0.0594   0.7016   0.0363
  -5.000  -0.9740   0.01060   0.00444   0.0603   0.6974   0.0431
  -4.500  -0.9221   0.01014   0.00403   0.0611   0.6922   0.0520
  -4.000  -0.8697   0.00969   0.00364   0.0619   0.6872   0.0635
  -3.500  -0.8175   0.00918   0.00325   0.0627   0.6810   0.0823
  -3.000  -0.7649   0.00871   0.00290   0.0634   0.6739   0.1060
  -2.500  -0.7124   0.00823   0.00255   0.0641   0.6645   0.1383
  -2.000  -0.6599   0.00775   0.00224   0.0649   0.6535   0.1792
  -1.500  -0.6074   0.00728   0.00196   0.0656   0.6400   0.2284
  -1.000  -0.5547   0.00685   0.00171   0.0663   0.6238   0.2831
  -0.500  -0.5020   0.00644   0.00149   0.0670   0.6045   0.3427
  -0.000  -0.4489   0.00607   0.00129   0.0676   0.5827   0.4058
