  
       XFOIL         Version 6.99
  
 Calculated polar for: NACA 2412                                       
  
 1 1 Reynolds number fixed          Mach number fixed         
  
 xtrf =   1.000 (top)        1.000 (bottom)  
 Mach =   0.000     Re =     1.521 e 6     Ncrit =   9.000
  
   alpha    CL        CD       CDp       CM     Top_Xtr  Bot_Xtr
  ------ -------- --------- --------- -------- -------- --------
 -15.000  -1.5588   0.06456   0.06069  -0.0007   0.7206   0.0099
 -14.500  -1.6024   0.05292   0.04870  -0.0025   0.7193   0.0100
 -14.000  -1.6269   0.04589   0.04141   0.0005   0.7174   0.0102
 -13.500  -1.6356   0.04102   0.03633   0.0045   0.7159   0.0104
 -13.000  -1.6318   0.03743   0.03257   0.0086   0.7141   0.0107
 -12.500  -1.6212   0.03455   0.02952   0.0128   0.7118   0.0110
 -12.000  -1.6059   0.03210   0.02691   0.0169   0.7095   0.0113
 -11.500  -1.5868   0.02994   0.02459   0.0210   0.7072   0.0116
 -11.000  -1.5637   0.02809   0.02258   0.0250   0.7046   0.0119
 -10.500  -1.5365   0.02653   0.02088   0.0288   0.7022   0.0122
 -10.000  -1.5127   0.02461   0.01880   0.0331   0.6993   0.0126
  -9.500  -1.4844   0.02296   0.01702   0.0370   0.6967   0.0133
  -9.000  -1.4488   0.02182   0.01581   0.0402   0.6939   0.0139
  -8.500  -1.4113   0.02077   0.01468   0.0431   0.6906   0.0146
  -8.000  -1.3716   0.01984   0.01364   0.0459   0.6878   0.0151
  -7.500  -1.3334   0.01857   0.01227   0.0489   0.6847   0.0160
  -7.000  -1.2912   0.01764   0.01130   0.0513   0.6808   0.0171
  -6.500  -1.2475   0.01687   0.01047   0.0537   0.6777   0.0180
  -6.000  -1.2043   0.01606   0.00959   0.0561   0.6744   0.0192
  -5.500  -1.1600   0.01530   0.00883   0.0584   0.6699   0.0209
  -5.000  -1.1129   0.01470   0.00817   0.0603   0.6658   0.0222
  -4.500  -1.0654   0.01394   0.00739   0.0620   0.6613   0.0247
  -4.000  -1.0162   0.01341   0.00684   0.0635   0.6555   0.0267
  -3.500  -0.9675   0.01276   0.00619   0.0651   0.6495   0.0304
  -3.000  -0.9179   0.01222   0.00565   0.0665   0.6429   0.0342
  -2.500  -0.8678   0.01172   0.00515   0.0679   0.6350   0.0391
  -2.000  -0.8176   0.01125   0.00469   0.0692   0.6268   0.0455
  -1.500  -0.7674   0.01077   0.00425   0.0705   0.6171   0.0551
  -1.000  -0.7171   0.01031   0.00385   0.0718   0.6072   0.0684
  -0.000  -0.6164   0.00946   0.00314   0.0744   0.5839   0.1105
   0.500  -0.5661   0.00903   0.00284   0.0757   0.5715   0.1431
   1.000  -0.5165   0.00858   0.00255   0.0770   0.5583   0.1879
   1.500  -0.4672   0.00812   0.00228   0.0784   0.5445   0.2458
   2.000  -0.4185   0.00762   0.00202   0.0799   0.5302   0.3220
   2.500  -0.3750   0.00674   0.00166   0.0822   0.5161   0.4733
   3.000  -0.3347   0.00557   0.00131   0.0852   0.5028   0.7381
   3.500  -0.2763   0.00581   0.00146   0.0851   0.4881   0.7480
   4.000  -0.2184   0.00593   0.00157   0.0849   0.4736   0.7554
   4.500  -0.1600   0.00618   0.00178   0.0847   0.4585   0.7612
   5.000  -0.1013   0.00648   0.00202   0.0844   0.4427   0.7645
   5.500  -0.0436   0.00647   0.00195   0.0841   0.4262   0.7681
   6.000   0.0146   0.00661   0.00208   0.0837   0.4077   0.7717
   6.500   0.0727   0.00688   0.00233   0.0834   0.3854   0.7765
   7.000   0.1308   0.00714   0.00251   0.0830   0.3599   0.7787
   7.500   0.1886   0.00728   0.00254   0.0824   0.3302   0.7777
   8.000   0.2461   0.00747   0.00263   0.0818   0.2966   0.7767
   8.500   0.3034   0.00772   0.00275   0.0812   0.2611   0.7756
   9.000   0.3601   0.00806   0.00294   0.0807   0.2200   0.7746
   9.500   0.4163   0.00848   0.00319   0.0801   0.1790   0.7736
  10.500   0.5274   0.00949   0.00388   0.0790   0.1069   0.7716
  11.000   0.5824   0.01003   0.00430   0.0785   0.0816   0.7707
  11.500   0.6371   0.01061   0.00478   0.0780   0.0626   0.7698
  12.000   0.6917   0.01115   0.00528   0.0775   0.0510   0.7689
  12.500   0.7458   0.01174   0.00584   0.0771   0.0422   0.7681
  13.000   0.7993   0.01238   0.00647   0.0766   0.0360   0.7672
  13.500   0.8521   0.01308   0.00718   0.0762   0.0310   0.7665
  14.000   0.9039   0.01387   0.00798   0.0759   0.0271   0.7657
  14.500   0.9557   0.01459   0.00877   0.0755   0.0248   0.7651
  15.000   1.0048   0.01558   0.00979   0.0752   0.0220   0.7646
  15.500   1.0546   0.01634   0.01062   0.0748   0.0205   0.7644
  16.000   1.1002   0.01757   0.01190   0.0746   0.0186   0.7641
  16.500   1.1462   0.01866   0.01309   0.0742   0.0177   0.7638
  17.000   1.1898   0.01994   0.01446   0.0738   0.0166   0.7635
  17.500   1.2270   0.02203   0.01665   0.0727   0.0154   0.7632
  18.000   1.2567   0.02503   0.01981   0.0702   0.0147   0.7628
  18.500   1.2727   0.02941   0.02434   0.0665   0.0143   0.7624
  19.000   1.2825   0.03405   0.02911   0.0641   0.0138   0.7619
  19.500   1.2851   0.03939   0.03458   0.0617   0.0134   0.7615
  20.000   1.2788   0.04586   0.04118   0.0590   0.0131   0.7611
  20.500   1.2632   0.05377   0.04925   0.0555   0.0127   0.7606
  21.000   1.2377   0.06349   0.05915   0.0510   0.0124   0.7602
  21.500   1.2024   0.07514   0.07100   0.0456   0.0122   0.7598
  22.000   1.1741   0.08629   0.08234   0.0402   0.0121   0.7594
  22.500   1.1470   0.09762   0.09384   0.0348   0.0120   0.7591
  23.000   1.1170   0.10976   0.10615   0.0289   0.0119   0.7588
  23.500   1.0876   0.12220   0.11876   0.0226   0.0118   0.7585
  24.000   1.0624   0.13438   0.13109   0.0163   0.0117   0.7582
  24.500   1.0373   0.14694   0.14380   0.0094   0.0115   0.7579
  25.000   1.0185   0.15883   0.15582   0.0026   0.0113   0.7576
