  
       XFOIL         Version 6.99
  
 Calculated polar for: NACA 2412                                       
  
 1 1 Reynolds number fixed          Mach number fixed         
  
 xtrf =   1.000 (top)        1.000 (bottom)  
 Mach =   0.000     Re =     1.521 e 6     Ncrit =   9.000
  
   alpha    CL        CD       CDp       CM     Top_Xtr  Bot_Xtr
  ------ -------- --------- --------- -------- -------- --------
 -15.000  -1.2214   0.02306   0.01908  -0.0750   1.0000   0.0128
 -14.500  -1.2013   0.02164   0.01754  -0.0703   1.0000   0.0132
 -14.000  -1.1623   0.02025   0.01602  -0.0690   0.9989   0.0136
 -13.500  -1.1046   0.01899   0.01462  -0.0711   0.9965   0.0139
 -13.000  -1.0493   0.01694   0.01242  -0.0733   0.9942   0.0150
 -12.500  -0.9914   0.01586   0.01127  -0.0749   0.9908   0.0158
 -12.000  -0.9304   0.01497   0.01029  -0.0770   0.9877   0.0166
 -11.500  -0.8709   0.01379   0.00900  -0.0788   0.9839   0.0177
 -11.000  -0.8170   0.01294   0.00810  -0.0790   0.9760   0.0189
 -10.500  -0.7627   0.01228   0.00736  -0.0791   0.9677   0.0200
 -10.000  -0.7122   0.01149   0.00649  -0.0783   0.9570   0.0216
  -9.500  -0.6602   0.01094   0.00590  -0.0778   0.9460   0.0234
  -9.000  -0.6075   0.01035   0.00522  -0.0773   0.9356   0.0254
  -8.500  -0.5543   0.00987   0.00468  -0.0768   0.9238   0.0278
  -8.000  -0.5010   0.00938   0.00413  -0.0763   0.9090   0.0311
  -7.500  -0.4464   0.00899   0.00367  -0.0761   0.8951   0.0346
  -7.000  -0.3910   0.00860   0.00326  -0.0760   0.8840   0.0392
  -6.500  -0.3354   0.00823   0.00288  -0.0759   0.8745   0.0458
  -6.000  -0.2792   0.00788   0.00254  -0.0760   0.8653   0.0540
  -5.500  -0.2230   0.00754   0.00223  -0.0760   0.8568   0.0671
  -5.000  -0.1665   0.00723   0.00197  -0.0761   0.8479   0.0831
  -4.500  -0.1098   0.00693   0.00174  -0.0763   0.8394   0.1053
  -4.000  -0.0532   0.00665   0.00154  -0.0764   0.8297   0.1335
  -3.500   0.0038   0.00638   0.00137  -0.0765   0.8199   0.1681
  -3.000   0.0604   0.00614   0.00123  -0.0766   0.8088   0.2103
  -2.500   0.1172   0.00591   0.00112  -0.0767   0.7958   0.2573
  -2.000   0.1740   0.00568   0.00104  -0.0768   0.7807   0.3120
  -1.500   0.2303   0.00549   0.00097  -0.0768   0.7604   0.3733
  -1.000   0.2856   0.00528   0.00093  -0.0767   0.7223   0.4589
  -0.500   0.3374   0.00538   0.00098  -0.0758   0.6482   0.5475
  -0.000   0.3913   0.00548   0.00109  -0.0753   0.6023   0.6161
   0.500   0.4462   0.00561   0.00121  -0.0750   0.5631   0.6669
   1.000   0.5013   0.00580   0.00132  -0.0747   0.5277   0.6990
   1.500   0.5561   0.00593   0.00143  -0.0744   0.4955   0.7260
   2.000   0.6084   0.00588   0.00159  -0.0736   0.4653   0.8232
   2.500   0.6644   0.00587   0.00181  -0.0732   0.4343   0.9836
   3.000   0.7345   0.00621   0.00200  -0.0764   0.3977   1.0000
   3.500   0.7842   0.00660   0.00221  -0.0752   0.3576   1.0000
   4.000   0.8340   0.00706   0.00248  -0.0740   0.3128   1.0000
   4.500   0.8831   0.00765   0.00282  -0.0727   0.2619   1.0000
   5.000   0.9318   0.00831   0.00323  -0.0714   0.2103   1.0000
   5.500   0.9796   0.00905   0.00372  -0.0701   0.1599   1.0000
   6.000   1.0272   0.00982   0.00425  -0.0687   0.1180   1.0000
   6.500   1.0749   0.01057   0.00482  -0.0673   0.0872   1.0000
   7.000   1.1225   0.01128   0.00541  -0.0660   0.0660   1.0000
   7.500   1.1702   0.01196   0.00601  -0.0647   0.0525   1.0000
   8.000   1.2168   0.01268   0.00666  -0.0632   0.0425   1.0000
   8.500   1.2626   0.01341   0.00736  -0.0616   0.0354   1.0000
   9.000   1.3075   0.01414   0.00808  -0.0599   0.0308   1.0000
   9.500   1.3511   0.01489   0.00886  -0.0580   0.0273   1.0000
  10.000   1.3915   0.01578   0.00975  -0.0556   0.0241   1.0000
  10.500   1.4284   0.01661   0.01062  -0.0526   0.0220   1.0000
  11.000   1.4612   0.01765   0.01171  -0.0490   0.0201   1.0000
  11.500   1.4946   0.01868   0.01280  -0.0458   0.0188   1.0000
  12.000   1.5211   0.02015   0.01433  -0.0419   0.0172   1.0000
  12.500   1.5516   0.02141   0.01568  -0.0388   0.0164   1.0000
  13.000   1.5785   0.02296   0.01730  -0.0356   0.0154   1.0000
  13.500   1.5989   0.02503   0.01946  -0.0320   0.0144   1.0000
  14.000   1.6165   0.02744   0.02200  -0.0286   0.0138   1.0000
  14.500   1.6360   0.02984   0.02452  -0.0258   0.0133   1.0000
  15.000   1.6513   0.03271   0.02751  -0.0232   0.0128   1.0000
  15.500   1.6617   0.03621   0.03113  -0.0208   0.0123   1.0000
  16.000   1.6628   0.04085   0.03592  -0.0188   0.0117   1.0000
  16.500   1.6542   0.04712   0.04239  -0.0179   0.0113   1.0000
  17.000   1.6559   0.05276   0.04821  -0.0180   0.0111   1.0000
  17.500   1.6501   0.05969   0.05533  -0.0189   0.0109   1.0000
  18.000   1.6373   0.06793   0.06376  -0.0207   0.0106   1.0000
  18.500   1.6173   0.07745   0.07350  -0.0233   0.0104   1.0000
  19.000   1.5911   0.08823   0.08449  -0.0268   0.0103   1.0000
  19.500   1.5586   0.10030   0.09678  -0.0313   0.0101   1.0000
  20.000   1.5223   0.11349   0.11020  -0.0369   0.0100   1.0000
  20.500   1.4836   0.12752   0.12445  -0.0435   0.0099   1.0000
  21.000   1.4462   0.14188   0.13902  -0.0511   0.0099   1.0000
  21.500   1.4104   0.15652   0.15387  -0.0595   0.0098   1.0000
  22.000   1.3800   0.17079   0.16832  -0.0685   0.0096   1.0000
  22.500   1.3533   0.18474   0.18243  -0.0779   0.0095   1.0000
  23.000   1.3328   0.19782   0.19565  -0.0872   0.0092   1.0000
  23.500   1.3172   0.21021   0.20817  -0.0963   0.0090   1.0000
  24.000   1.3065   0.22190   0.22001  -0.1051   0.0089   1.0000
  24.500   1.2930   0.23487   0.23313  -0.1150   0.0087   1.0000
  25.000   1.2766   0.24931   0.24774  -0.1260   0.0085   1.0000
