  
       XFOIL         Version 6.99
  
 Calculated polar for: NACA 2412                                       
  
 1 1 Reynolds number fixed          Mach number fixed         
  
 xtrf =   1.000 (top)        1.000 (bottom)  
 Mach =   0.000     Re =     2.332 e 6     Ncrit =   9.000
  
   alpha    CL        CD       CDp       CM     Top_Xtr  Bot_Xtr
  ------ -------- --------- --------- -------- -------- --------
 -13.500   0.1034   0.04592   0.04210  -0.2378   0.7618   0.0315
 -13.000   0.1541   0.04660   0.04274  -0.2380   0.7618   0.0348
 -12.500   0.2033   0.04734   0.04348  -0.2378   0.7618   0.0383
 -12.000   0.2515   0.04813   0.04429  -0.2374   0.7618   0.0444
 -11.500   0.2829   0.04938   0.04556  -0.2346   0.7616   0.0503
 -11.000   0.3304   0.05023   0.04643  -0.2340   0.7616   0.0589
 -10.500   0.3786   0.05107   0.04731  -0.2334   0.7616   0.0697
 -10.000   0.4266   0.05174   0.04802  -0.2327   0.7616   0.0826
  -9.500   0.4744   0.05240   0.04871  -0.2319   0.7615   0.0976
  -9.000   0.5224   0.05304   0.04942  -0.2312   0.7615   0.1188
  -8.500   0.5703   0.05367   0.05013  -0.2303   0.7615   0.1420
  -8.000   0.6179   0.05427   0.05080  -0.2294   0.7615   0.1686
  -7.500   0.6636   0.05481   0.05142  -0.2281   0.7614   0.1941
  -7.000   0.7076   0.05529   0.05198  -0.2265   0.7613   0.2242
  -6.500   0.7471   0.05553   0.05229  -0.2243   0.7610   0.2497
  -6.000   0.7585   0.05482   0.05164  -0.2179   0.7578   0.2692
  -5.500   0.8132   0.05449   0.05141  -0.2176   0.7542   0.3036
  -5.000   0.9094   0.05214   0.04914  -0.2230   0.7513   0.3419
  -4.500   0.9610   0.05084   0.04792  -0.2220   0.7434   0.3712
  -4.000   1.2992   0.02716   0.02426  -0.2630   0.7372   0.4529
  -3.500   1.1229   0.04525   0.04247  -0.2285   0.7321   0.4402
  -3.000   1.1568   0.04571   0.04235  -0.2256   0.5946   0.4645
  -2.500   1.1754   0.04779   0.04392  -0.2200   0.4972   0.4814
  -2.000   1.2207   0.04785   0.04368  -0.2181   0.4367   0.5000
  -1.500   1.2661   0.04797   0.04357  -0.2163   0.3884   0.5154
  -1.000   1.3075   0.04832   0.04364  -0.2138   0.3311   0.5295
  -0.500   1.3471   0.04867   0.04364  -0.2110   0.2636   0.5404
  -0.000   1.3907   0.04865   0.04328  -0.2087   0.2024   0.5504
   0.500   1.4307   0.04886   0.04317  -0.2059   0.1446   0.5600
   1.000   1.4694   0.04933   0.04340  -0.2029   0.1047   0.5680
   1.500   1.5081   0.04987   0.04377  -0.1999   0.0770   0.5754
   2.000   1.5467   0.05048   0.04427  -0.1970   0.0582   0.5825
   2.500   1.5845   0.05114   0.04483  -0.1939   0.0443   0.5880
   3.000   1.6222   0.05184   0.04550  -0.1909   0.0365   0.5943
   3.500   1.6590   0.05261   0.04624  -0.1878   0.0305   0.5999
   4.000   1.6947   0.05346   0.04707  -0.1845   0.0256   0.6048
   4.500   1.7303   0.05436   0.04797  -0.1813   0.0228   0.6090
   5.000   1.7644   0.05535   0.04899  -0.1779   0.0202   0.6140
   5.500   1.7969   0.05646   0.05010  -0.1744   0.0178   0.6180
   6.000   1.8289   0.05760   0.05129  -0.1708   0.0163   0.6216
   6.500   1.8589   0.05891   0.05260  -0.1670   0.0148   0.6245
   7.000   1.8873   0.06036   0.05412  -0.1631   0.0136   0.6279
   7.500   1.9150   0.06188   0.05570  -0.1592   0.0128   0.6306
   8.000   1.9370   0.06392   0.05779  -0.1547   0.0117   0.6332
   8.500   1.9575   0.06606   0.06001  -0.1501   0.0108   0.6358
   9.000   1.9802   0.06803   0.06206  -0.1460   0.0104   0.6384
   9.500   2.0004   0.07025   0.06435  -0.1416   0.0099   0.6407
  10.000   2.0138   0.07317   0.06736  -0.1368   0.0093   0.6429
  10.500   2.0223   0.07657   0.07088  -0.1317   0.0085   0.6444
  11.000   2.0366   0.07942   0.07384  -0.1274   0.0084   0.6457
  11.500   2.0431   0.08318   0.07774  -0.1228   0.0082   0.6472
  12.000   2.0490   0.08711   0.08179  -0.1185   0.0079   0.6488
  12.500   2.0506   0.09166   0.08647  -0.1145   0.0076   0.6504
  13.000   2.0479   0.09696   0.09191  -0.1109   0.0073   0.6522
  13.500   2.0413   0.10292   0.09802  -0.1081   0.0071   0.6541
  14.000   2.0285   0.10995   0.10523  -0.1062   0.0067   0.6556
  14.500   2.0097   0.11809   0.11359  -0.1056   0.0064   0.6564
  15.000   2.0008   0.12498   0.12065  -0.1057   0.0064   0.6571
  15.500   1.9901   0.13225   0.12810  -0.1069   0.0063   0.6577
  16.000   1.9768   0.14001   0.13603  -0.1090   0.0062   0.6583
  16.500   1.9614   0.14831   0.14452  -0.1123   0.0061   0.6589
  17.000   1.9445   0.15708   0.15348  -0.1167   0.0060   0.6594
  17.500   1.9260   0.16634   0.16293  -0.1221   0.0059   0.6600
  18.000   1.9059   0.17612   0.17290  -0.1287   0.0058   0.6608
  18.500   1.8833   0.18663   0.18362  -0.1367   0.0057   0.6615
  19.000   1.8561   0.19833   0.19553  -0.1465   0.0056   0.6622
  19.500   1.8272   0.21086   0.20827  -0.1576   0.0055   0.6629
  20.000   1.7950   0.22471   0.22234  -0.1707   0.0055   0.6634
  20.500   1.7623   0.23937   0.23722  -0.1851   0.0054   0.6639
  21.000   1.7309   0.25455   0.25261  -0.2004   0.0053   0.6643
  21.500   1.7021   0.26993   0.26816  -0.2161   0.0052   0.6646
  22.000   1.6832   0.28302   0.28140  -0.2297   0.0050   0.6653
  22.500   1.6690   0.29518   0.29367  -0.2424   0.0047   0.6662
  23.000   1.6607   0.30559   0.30420  -0.2533   0.0046   0.6674
  23.500   1.6528   0.31623   0.31497  -0.2645   0.0045   0.6677
  24.000   1.6367   0.33203   0.33094  -0.2807   0.0042   0.6678
