  
       XFOIL         Version 6.99
  
 Calculated polar for: NACA 2412                                       
  
 1 1 Reynolds number fixed          Mach number fixed         
  
 xtrf =   1.000 (top)        1.000 (bottom)  
 Mach =   0.000     Re =     2.332 e 6     Ncrit =   9.000
  
   alpha    CL        CD       CDp       CM     Top_Xtr  Bot_Xtr
  ------ -------- --------- --------- -------- -------- --------
 -15.000  -0.0817   0.01934   0.01533  -0.2423   0.7686   0.0227
 -14.500  -0.0345   0.01966   0.01563  -0.2419   0.7689   0.0237
 -14.000   0.0108   0.01995   0.01592  -0.2413   0.7693   0.0264
 -13.500   0.0466   0.02078   0.01673  -0.2387   0.7695   0.0280
 -13.000  -0.0137   0.02591   0.02188  -0.2208   0.7679   0.0280
 -12.500   0.0234   0.02699   0.02294  -0.2189   0.7683   0.0313
 -12.000   0.0630   0.02798   0.02391  -0.2172   0.7689   0.0335
 -11.500   0.1065   0.02878   0.02471  -0.2161   0.7698   0.0381
 -11.000   0.1528   0.02953   0.02547  -0.2152   0.7708   0.0433
 -10.500   0.2046   0.03022   0.02618  -0.2151   0.7723   0.0508
 -10.000   0.2683   0.03121   0.02721  -0.2166   0.7743   0.0607
  -9.500   0.3173   0.03200   0.02804  -0.2160   0.7745   0.0716
  -9.000   0.3639   0.03228   0.02835  -0.2150   0.7742   0.0848
  -8.500   0.4117   0.03282   0.02896  -0.2142   0.7741   0.1047
  -8.000   0.4501   0.03322   0.02942  -0.2119   0.7734   0.1241
  -7.500   0.4900   0.03369   0.02995  -0.2099   0.7724   0.1444
  -7.000   0.5313   0.03417   0.03052  -0.2079   0.7711   0.1719
  -6.500   0.5773   0.03458   0.03101  -0.2066   0.7698   0.2006
  -6.000   0.6302   0.03465   0.03117  -0.2062   0.7677   0.2325
  -5.500   0.7144   0.03305   0.02968  -0.2102   0.7645   0.2747
  -5.000   1.1383   0.01013   0.00654  -0.2697   0.7428   0.3902
  -4.500   1.2079   0.00915   0.00558  -0.2724   0.7448   0.4270
  -4.000   1.2727   0.00807   0.00455  -0.2740   0.7425   0.4594
  -3.500   1.3346   0.00705   0.00347  -0.2749   0.7353   0.4864
  -3.000   1.3670   0.00698   0.00321  -0.2698   0.6537   0.5060
  -2.500   1.2695   0.01252   0.00838  -0.2405   0.5382   0.5114
  -2.000   1.1959   0.02154   0.01735  -0.2210   0.4892   0.5183
  -1.500   1.1923   0.02490   0.02057  -0.2116   0.4480   0.5311
  -1.000   1.2114   0.02679   0.02228  -0.2058   0.4040   0.5439
  -0.500   1.2387   0.02817   0.02344  -0.2011   0.3544   0.5563
  -0.000   1.2683   0.02930   0.02431  -0.1967   0.2988   0.5676
   0.500   1.3008   0.03022   0.02495  -0.1927   0.2427   0.5764
   1.000   1.3353   0.03095   0.02536  -0.1890   0.1838   0.5866
   1.500   1.3713   0.03162   0.02575  -0.1855   0.1347   0.5941
   2.000   1.4086   0.03237   0.02633  -0.1823   0.1011   0.6020
   2.500   1.4461   0.03315   0.02695  -0.1791   0.0750   0.6088
   3.000   1.4837   0.03395   0.02763  -0.1760   0.0566   0.6145
   3.500   1.5219   0.03476   0.02839  -0.1731   0.0457   0.6207
   4.000   1.5596   0.03561   0.02920  -0.1701   0.0375   0.6260
   4.500   1.5968   0.03652   0.03007  -0.1671   0.0312   0.6309
   5.000   1.6335   0.03748   0.03103  -0.1640   0.0268   0.6354
   5.500   1.6687   0.03852   0.03206  -0.1608   0.0230   0.6393
   6.000   1.7034   0.03963   0.03317  -0.1576   0.0207   0.6428
   6.500   1.7359   0.04092   0.03449  -0.1541   0.0185   0.6459
   7.000   1.7675   0.04228   0.03588  -0.1506   0.0169   0.6486
   7.500   1.7974   0.04375   0.03739  -0.1469   0.0153   0.6511
   8.000   1.8276   0.04518   0.03888  -0.1434   0.0144   0.6538
   8.500   1.8547   0.04686   0.04059  -0.1395   0.0130   0.6564
   9.000   1.8808   0.04866   0.04245  -0.1356   0.0122   0.6589
   9.500   1.9040   0.05074   0.04461  -0.1315   0.0117   0.6607
  10.000   1.9258   0.05289   0.04683  -0.1274   0.0109   0.6620
  10.500   1.9436   0.05540   0.04942  -0.1229   0.0101   0.6635
  11.000   1.9595   0.05818   0.05231  -0.1184   0.0097   0.6651
  11.500   1.9763   0.06091   0.05514  -0.1143   0.0094   0.6669
  12.000   1.9902   0.06393   0.05827  -0.1101   0.0090   0.6690
  12.500   1.9990   0.06754   0.06197  -0.1058   0.0086   0.6709
  13.000   2.0029   0.07177   0.06632  -0.1015   0.0081   0.6717
  13.500   1.9975   0.07720   0.07193  -0.0971   0.0077   0.6724
  14.000   1.9962   0.08248   0.07736  -0.0938   0.0075   0.6732
  14.500   1.9926   0.08836   0.08340  -0.0913   0.0074   0.6741
  15.000   1.9858   0.09493   0.09014  -0.0896   0.0073   0.6752
  15.500   1.9754   0.10220   0.09759  -0.0889   0.0071   0.6765
  16.000   1.9609   0.11021   0.10579  -0.0891   0.0070   0.6777
  16.500   1.9437   0.11877   0.11454  -0.0905   0.0068   0.6789
  17.000   1.9250   0.12781   0.12376  -0.0930   0.0067   0.6800
  17.500   1.9035   0.13756   0.13370  -0.0968   0.0065   0.6805
  18.000   1.8802   0.14777   0.14410  -0.1017   0.0064   0.6809
  18.500   1.8553   0.15861   0.15514  -0.1080   0.0063   0.6814
  19.000   1.8256   0.17079   0.16755  -0.1161   0.0062   0.6818
  19.500   1.7941   0.18378   0.18075  -0.1258   0.0061   0.6823
  20.000   1.7572   0.19850   0.19571  -0.1378   0.0060   0.6826
  20.500   1.7190   0.21407   0.21152  -0.1514   0.0059   0.6829
  21.000   1.6792   0.23106   0.22875  -0.1669   0.0058   0.6831
  21.500   1.6455   0.24756   0.24546  -0.1823   0.0057   0.6833
  22.000   1.6292   0.25981   0.25785  -0.1939   0.0056   0.6838
  22.500   1.6169   0.27127   0.26944  -0.2048   0.0056   0.6843
  23.000   1.6061   0.28264   0.28094  -0.2159   0.0055   0.6849
  23.500   1.5972   0.29371   0.29212  -0.2267   0.0053   0.6855
  24.000   1.5892   0.30488   0.30340  -0.2377   0.0051   0.6860
  24.500   1.5821   0.31616   0.31479  -0.2487   0.0048   0.6866
  25.000   1.5700   0.33095   0.32969  -0.2628   0.0045   0.6869
