  
       XFOIL         Version 6.99
  
 Calculated polar for: NACA 2412                                       
  
 1 1 Reynolds number fixed          Mach number fixed         
  
 xtrf =   1.000 (top)        1.000 (bottom)  
 Mach =   0.000     Re =     1.521 e 6     Ncrit =   9.000
  
   alpha    CL        CD       CDp       CM     Top_Xtr  Bot_Xtr
  ------ -------- --------- --------- -------- -------- --------
 -15.000  -0.9629   0.01900   0.01449  -0.1139   0.8388   0.0145
 -14.500  -0.9153   0.01777   0.01312  -0.1141   0.8354   0.0151
 -14.000  -0.8653   0.01680   0.01201  -0.1144   0.8326   0.0155
 -13.500  -0.8186   0.01518   0.01023  -0.1145   0.8299   0.0166
 -13.000  -0.7668   0.01434   0.00930  -0.1147   0.8275   0.0176
 -12.500  -0.7134   0.01366   0.00852  -0.1150   0.8255   0.0185
 -12.000  -0.6609   0.01267   0.00744  -0.1153   0.8246   0.0198
 -11.500  -0.6065   0.01200   0.00673  -0.1156   0.8239   0.0212
 -11.000  -0.5510   0.01149   0.00615  -0.1160   0.8231   0.0224
 -10.500  -0.4963   0.01075   0.00537  -0.1164   0.8224   0.0248
 -10.000  -0.4400   0.01032   0.00489  -0.1168   0.8218   0.0266
  -9.500  -0.3841   0.00975   0.00430  -0.1172   0.8213   0.0300
  -9.000  -0.3274   0.00930   0.00384  -0.1176   0.8208   0.0336
  -8.500  -0.2703   0.00893   0.00345  -0.1181   0.8204   0.0377
  -8.000  -0.2130   0.00857   0.00310  -0.1186   0.8196   0.0429
  -7.500  -0.1561   0.00819   0.00274  -0.1189   0.8156   0.0508
  -7.000  -0.0990   0.00786   0.00243  -0.1192   0.8121   0.0618
  -6.500  -0.0414   0.00758   0.00220  -0.1197   0.8094   0.0762
  -6.000   0.0165   0.00729   0.00198  -0.1202   0.8080   0.0949
  -5.500   0.0744   0.00700   0.00180  -0.1207   0.8064   0.1188
  -5.000   0.1323   0.00673   0.00163  -0.1211   0.8042   0.1493
  -4.500   0.1902   0.00646   0.00150  -0.1216   0.8016   0.1866
  -4.000   0.2482   0.00622   0.00139  -0.1220   0.7983   0.2277
  -3.500   0.3061   0.00603   0.00132  -0.1224   0.7943   0.2741
  -3.000   0.3640   0.00583   0.00127  -0.1228   0.7903   0.3235
  -2.500   0.4218   0.00560   0.00121  -0.1231   0.7849   0.3779
  -2.000   0.4791   0.00539   0.00117  -0.1233   0.7778   0.4464
  -1.500   0.5365   0.00520   0.00118  -0.1235   0.7697   0.5139
  -1.000   0.5935   0.00509   0.00119  -0.1235   0.7568   0.5649
  -0.500   0.6460   0.00520   0.00115  -0.1226   0.6774   0.6018
  -0.000   0.6905   0.00602   0.00157  -0.1202   0.5781   0.6286
   0.500   0.7413   0.00646   0.00185  -0.1191   0.5254   0.6492
   1.000   0.7927   0.00687   0.00210  -0.1181   0.4817   0.6647
   1.500   0.8438   0.00730   0.00237  -0.1171   0.4427   0.6764
   2.000   0.8951   0.00771   0.00265  -0.1160   0.4057   0.6860
   2.500   0.9443   0.00820   0.00295  -0.1147   0.3612   0.6941
   3.000   0.9917   0.00876   0.00330  -0.1131   0.3104   0.7017
   3.500   1.0376   0.00940   0.00372  -0.1112   0.2560   0.7096
   4.500   1.1251   0.01090   0.00478  -0.1069   0.1504   0.7301
   5.000   1.1682   0.01168   0.00541  -0.1046   0.1099   0.7449
   5.500   1.2086   0.01197   0.00606  -0.1017   0.0828   0.9999
   6.000   1.2496   0.01275   0.00672  -0.0990   0.0633   0.9999
   6.500   1.2899   0.01350   0.00740  -0.0962   0.0506   0.9999
   7.000   1.3297   0.01431   0.00815  -0.0934   0.0415   0.9999
   7.500   1.3689   0.01513   0.00895  -0.0906   0.0353   0.9999
   8.000   1.4075   0.01599   0.00981  -0.0878   0.0305   0.9999
   8.500   1.4445   0.01694   0.01078  -0.0849   0.0270   0.9999
   9.000   1.4790   0.01805   0.01189  -0.0816   0.0238   0.9999
   9.500   1.5146   0.01908   0.01297  -0.0787   0.0219   0.9999
  10.000   1.5447   0.02048   0.01440  -0.0752   0.0196   0.9999
  10.500   1.5775   0.02169   0.01569  -0.0721   0.0186   0.9999
  11.000   1.6063   0.02319   0.01724  -0.0687   0.0173   0.9999
  11.500   1.6298   0.02509   0.01922  -0.0649   0.0160   0.9999
  12.000   1.6567   0.02676   0.02099  -0.0617   0.0152   0.9999
  12.500   1.6793   0.02877   0.02308  -0.0582   0.0144   0.9999
  13.000   1.6941   0.03145   0.02586  -0.0542   0.0135   0.9999
  13.500   1.7084   0.03422   0.02876  -0.0505   0.0129   0.9999
  14.000   1.7238   0.03705   0.03171  -0.0473   0.0125   0.9999
  14.500   1.7354   0.04034   0.03514  -0.0442   0.0120   0.9999
  15.000   1.7425   0.04426   0.03919  -0.0414   0.0116   0.9999
  15.500   1.7433   0.04915   0.04422  -0.0391   0.0112   0.9999
  16.000   1.7298   0.05632   0.05160  -0.0377   0.0107   0.9999
  16.500   1.7226   0.06341   0.05889  -0.0377   0.0105   0.9999
  17.000   1.7161   0.07071   0.06638  -0.0385   0.0103   0.9999
  17.500   1.7016   0.07946   0.07534  -0.0402   0.0101   0.9999
  18.000   1.6781   0.08970   0.08580  -0.0429   0.0099   0.9999
  18.500   1.6497   0.10107   0.09739  -0.0466   0.0098   0.9999
  19.000   1.6166   0.11350   0.11005  -0.0514   0.0096   0.9999
  19.500   1.5824   0.12660   0.12338  -0.0573   0.0095   0.9999
  20.000   1.5475   0.14022   0.13723  -0.0642   0.0094   0.9999
  20.500   1.5134   0.15432   0.15154  -0.0723   0.0093   0.9999
  21.000   1.4827   0.16830   0.16571  -0.0812   0.0092   0.9999
  21.500   1.4545   0.18224   0.17984  -0.0906   0.0091   0.9999
  22.000   1.4298   0.19604   0.19380  -0.1006   0.0089   0.9999
  22.500   1.4105   0.20908   0.20698  -0.1104   0.0087   0.9999
  23.000   1.3953   0.22147   0.21950  -0.1200   0.0085   0.9999
  23.500   1.3828   0.23350   0.23167  -0.1297   0.0083   0.9999
  24.000   1.3710   0.24589   0.24421  -0.1397   0.0081   0.9999
  24.500   1.3542   0.26064   0.25914  -0.1515   0.0079   0.9999
  25.000   1.2537   0.33884   0.33763  -0.1977   0.0053   0.9999
