  
       XFOIL         Version 6.99
  
 Calculated polar for: NACA 2412                                       
  
 1 1 Reynolds number fixed          Mach number fixed         
  
 xtrf =   1.000 (top)        1.000 (bottom)  
 Mach =   0.000     Re =     1.521 e 6     Ncrit =   9.000
  
   alpha    CL        CD       CDp       CM     Top_Xtr  Bot_Xtr
  ------ -------- --------- --------- -------- -------- --------
 -15.000  -0.4977   0.01521   0.01033  -0.1821   0.7710   0.0187
 -14.500  -0.4424   0.01435   0.00936  -0.1835   0.7715   0.0196
 -14.000  -0.3870   0.01344   0.00837  -0.1849   0.7720   0.0212
 -13.500  -0.3307   0.01290   0.00777  -0.1861   0.7726   0.0226
 -13.000  -0.2744   0.01226   0.00707  -0.1872   0.7731   0.0246
 -12.500  -0.2175   0.01185   0.00662  -0.1882   0.7735   0.0267
 -12.000  -0.1606   0.01139   0.00611  -0.1892   0.7740   0.0293
 -11.500  -0.1034   0.01112   0.00582  -0.1901   0.7744   0.0321
 -11.000  -0.0463   0.01080   0.00551  -0.1909   0.7747   0.0366
 -10.500   0.0111   0.01055   0.00525  -0.1917   0.7751   0.0416
 -10.000   0.0709   0.00998   0.00467  -0.1929   0.7763   0.0486
  -9.500   0.1297   0.00958   0.00431  -0.1938   0.7774   0.0573
  -9.000   0.1881   0.00930   0.00407  -0.1947   0.7784   0.0691
  -8.500   0.2463   0.00909   0.00392  -0.1955   0.7791   0.0841
  -8.000   0.3046   0.00885   0.00375  -0.1962   0.7784   0.1051
  -7.500   0.3628   0.00867   0.00365  -0.1969   0.7774   0.1309
  -7.000   0.4209   0.00855   0.00362  -0.1976   0.7767   0.1600
  -6.500   0.4781   0.00854   0.00372  -0.1981   0.7757   0.1943
  -6.000   0.5354   0.00851   0.00381  -0.1985   0.7748   0.2313
  -5.500   0.5946   0.00820   0.00361  -0.1993   0.7743   0.2702
  -4.500   0.7122   0.00766   0.00330  -0.2004   0.7718   0.3526
  -4.000   0.7706   0.00739   0.00315  -0.2009   0.7696   0.3960
  -3.500   0.8293   0.00709   0.00296  -0.2013   0.7665   0.4438
  -3.000   0.8884   0.00683   0.00277  -0.2018   0.7628   0.4878
  -2.500   0.9457   0.00673   0.00276  -0.2019   0.7581   0.5227
  -2.000   1.0026   0.00639   0.00252  -0.2018   0.7522   0.5498
  -1.500   1.0588   0.00614   0.00231  -0.2016   0.7430   0.5711
  -1.000   1.0834   0.00703   0.00273  -0.1949   0.5991   0.5864
  -0.500   1.0974   0.00841   0.00371  -0.1864   0.5060   0.5990
  -0.000   1.1146   0.00943   0.00455  -0.1785   0.4571   0.6110
   0.500   1.1387   0.01062   0.00559  -0.1726   0.4143   0.6214
   1.000   1.1651   0.01192   0.00673  -0.1674   0.3694   0.6307
   1.500   1.1905   0.01340   0.00799  -0.1622   0.3169   0.6388
   2.000   1.2175   0.01485   0.00917  -0.1574   0.2627   0.6461
   2.500   1.2472   0.01618   0.01025  -0.1530   0.2078   0.6521
   3.000   1.2785   0.01746   0.01124  -0.1489   0.1558   0.6582
   3.500   1.3130   0.01862   0.01217  -0.1454   0.1154   0.6629
   4.000   1.3481   0.01976   0.01315  -0.1420   0.0856   0.6678
   4.500   1.3848   0.02084   0.01409  -0.1389   0.0654   0.6726
   5.000   1.4216   0.02190   0.01508  -0.1359   0.0510   0.6752
   5.500   1.4588   0.02293   0.01608  -0.1330   0.0420   0.6783
   6.000   1.4948   0.02405   0.01718  -0.1300   0.0352   0.6819
   6.500   1.5298   0.02524   0.01835  -0.1269   0.0302   0.6848
   7.000   1.5645   0.02642   0.01955  -0.1238   0.0266   0.6875
   7.500   1.5982   0.02768   0.02085  -0.1206   0.0239   0.6909
   8.000   1.6281   0.02922   0.02241  -0.1171   0.0211   0.6934
   8.500   1.6606   0.03053   0.02381  -0.1139   0.0198   0.6963
   9.000   1.6876   0.03229   0.02559  -0.1102   0.0179   0.6992
   9.500   1.7154   0.03399   0.02739  -0.1067   0.0168   0.7014
  10.000   1.7414   0.03581   0.02930  -0.1031   0.0157   0.7042
  10.500   1.7615   0.03815   0.03171  -0.0990   0.0145   0.7064
  11.000   1.7824   0.04048   0.03417  -0.0951   0.0139   0.7086
  11.500   1.8024   0.04289   0.03670  -0.0914   0.0132   0.7111
  12.500   1.8307   0.04898   0.04301  -0.0835   0.0118   0.7149
  13.000   1.8356   0.05305   0.04725  -0.0793   0.0113   0.7171
  13.500   1.8445   0.05687   0.05124  -0.0758   0.0110   0.7191
  14.000   1.8496   0.06131   0.05583  -0.0727   0.0106   0.7206
  14.500   1.8506   0.06653   0.06121  -0.0700   0.0103   0.7222
  15.000   1.8460   0.07284   0.06771  -0.0682   0.0100   0.7243
  15.500   1.8360   0.08032   0.07539  -0.0675   0.0097   0.7264
  16.000   1.8168   0.08951   0.08480  -0.0680   0.0094   0.7280
  16.500   1.7851   0.10085   0.09639  -0.0701   0.0091   0.7291
  17.000   1.7489   0.11335   0.10916  -0.0738   0.0090   0.7302
  18.500   1.6735   0.14756   0.14406  -0.0894   0.0087   0.7363
  19.000   1.6479   0.15978   0.15650  -0.0967   0.0086   0.7403
  19.500   1.6215   0.17256   0.16951  -0.1052   0.0086   0.7442
  20.000   1.5968   0.18568   0.18299  -0.1147   0.0084   0.8579
  20.500   1.5728   0.19806   0.19577  -0.1237   0.0083   0.9998
  21.000   1.5516   0.21105   0.20894  -0.1340   0.0082   0.9998
  21.500   1.5329   0.22377   0.22183  -0.1444   0.0080   0.9998
  22.000   1.5177   0.23601   0.23420  -0.1548   0.0079   0.9998
  22.500   1.5054   0.24785   0.24617  -0.1650   0.0076   0.9998
  23.000   1.4951   0.25947   0.25791  -0.1752   0.0074   0.9998
  23.500   1.4865   0.27089   0.26942  -0.1853   0.0071   0.9998
  24.000   1.4573   0.29135   0.29013  -0.2029   0.0068   0.9998
