  
       XFOIL         Version 6.99
  
 Calculated polar for: NACA 0012                                       
  
 1 1 Reynolds number fixed          Mach number fixed         
  
 xtrf =   1.000 (top)        1.000 (bottom)  
 Mach =   0.000     Re =     2.332 e 6     Ncrit =   9.000
  
   alpha    CL        CD       CDp       CM     Top_Xtr  Bot_Xtr
  ------ -------- --------- --------- -------- -------- --------
 -12.000  -0.9600   0.01188   0.00663  -0.0549   0.8529   0.0190
 -11.500  -0.9077   0.01128   0.00600  -0.0548   0.8457   0.0210
 -11.000  -0.8544   0.01078   0.00543  -0.0547   0.8389   0.0228
 -10.500  -0.8005   0.01024   0.00489  -0.0548   0.8358   0.0254
 -10.000  -0.7461   0.00975   0.00439  -0.0548   0.8325   0.0287
  -9.500  -0.6911   0.00932   0.00395  -0.0550   0.8296   0.0324
  -9.000  -0.6358   0.00892   0.00355  -0.0551   0.8269   0.0369
  -8.500  -0.5802   0.00851   0.00316  -0.0553   0.8242   0.0441
  -8.000  -0.5244   0.00813   0.00281  -0.0555   0.8218   0.0534
  -7.500  -0.4681   0.00773   0.00249  -0.0557   0.8209   0.0661
  -7.000  -0.4115   0.00736   0.00220  -0.0560   0.8194   0.0829
  -6.500  -0.3550   0.00700   0.00193  -0.0562   0.8150   0.1040
  -6.000  -0.2986   0.00665   0.00168  -0.0564   0.8100   0.1329
  -5.500  -0.2420   0.00632   0.00148  -0.0567   0.8049   0.1690
  -5.000  -0.1848   0.00598   0.00130  -0.0570   0.8025   0.2081
  -4.500  -0.1275   0.00566   0.00114  -0.0573   0.7989   0.2517
  -4.000  -0.0700   0.00541   0.00102  -0.0576   0.7944   0.2944
  -3.500  -0.0126   0.00520   0.00093  -0.0579   0.7880   0.3379
  -3.000   0.0454   0.00497   0.00086  -0.0582   0.7837   0.3799
  -2.500   0.1031   0.00481   0.00080  -0.0585   0.7754   0.4195
  -2.000   0.1611   0.00467   0.00076  -0.0587   0.7656   0.4566
  -1.500   0.2187   0.00457   0.00074  -0.0589   0.7484   0.4921
  -1.000   0.2692   0.00509   0.00084  -0.0578   0.5987   0.5243
  -0.500   0.3223   0.00546   0.00099  -0.0572   0.5095   0.5548
  -0.000   0.3760   0.00579   0.00113  -0.0567   0.4374   0.5817
