  
       XFOIL         Version 6.99
  
 Calculated polar for: NACA 0012                                       
  
 1 1 Reynolds number fixed          Mach number fixed         
  
 xtrf =   1.000 (top)        1.000 (bottom)  
 Mach =   0.000     Re =     1.521 e 6     Ncrit =   9.000
  
   alpha    CL        CD       CDp       CM     Top_Xtr  Bot_Xtr
  ------ -------- --------- --------- -------- -------- --------
 -12.000  -1.1657   0.01512   0.00985  -0.0239   1.0000   0.0183
 -11.500  -1.1264   0.01437   0.00907  -0.0212   1.0000   0.0196
 -11.000  -1.0878   0.01378   0.00843  -0.0182   1.0000   0.0206
 -10.500  -1.0373   0.01288   0.00749  -0.0179   0.9987   0.0228
 -10.000  -0.9741   0.01225   0.00683  -0.0200   0.9963   0.0246
  -9.500  -0.9105   0.01148   0.00606  -0.0223   0.9942   0.0282
  -9.000  -0.8486   0.01082   0.00540  -0.0241   0.9907   0.0320
  -8.500  -0.7850   0.01022   0.00482  -0.0262   0.9869   0.0369
  -8.000  -0.7214   0.00966   0.00428  -0.0282   0.9829   0.0438
  -7.500  -0.6658   0.00915   0.00382  -0.0283   0.9731   0.0525
  -7.000  -0.6123   0.00869   0.00340  -0.0278   0.9599   0.0639
  -6.500  -0.5610   0.00824   0.00299  -0.0268   0.9425   0.0810
  -6.000  -0.5084   0.00781   0.00262  -0.0261   0.9263   0.1031
  -5.500  -0.4549   0.00739   0.00229  -0.0256   0.9111   0.1332
  -5.000  -0.4006   0.00699   0.00200  -0.0253   0.8968   0.1700
  -4.500  -0.3461   0.00659   0.00174  -0.0250   0.8831   0.2147
  -4.000  -0.2910   0.00624   0.00153  -0.0248   0.8703   0.2627
  -3.000  -0.1795   0.00565   0.00122  -0.0246   0.8437   0.3616
  -2.500  -0.1234   0.00541   0.00111  -0.0246   0.8289   0.4111
  -2.000  -0.0670   0.00521   0.00102  -0.0245   0.8128   0.4577
  -1.500  -0.0107   0.00506   0.00096  -0.0244   0.7931   0.5032
  -1.000   0.0456   0.00495   0.00092  -0.0243   0.7667   0.5466
  -0.500   0.1001   0.00500   0.00088  -0.0238   0.6927   0.5862
  -0.000   0.1530   0.00532   0.00097  -0.0231   0.6014   0.6231
