  
       XFOIL         Version 6.99
  
 Calculated polar for: NACA 2412                                       
  
 1 1 Reynolds number fixed          Mach number fixed         
  
 xtrf =   1.000 (top)        1.000 (bottom)  
 Mach =   0.000     Re =     2.332 e 6     Ncrit =   9.000
  
   alpha    CL        CD       CDp       CM     Top_Xtr  Bot_Xtr
  ------ -------- --------- --------- -------- -------- --------
 -15.000  -0.0199   0.04674   0.04309  -0.2373   0.7527   0.0247
 -14.500   0.0299   0.04745   0.04375  -0.2382   0.7528   0.0273
 -14.000   0.0748   0.04831   0.04459  -0.2378   0.7529   0.0292
 -13.500   0.1195   0.04920   0.04546  -0.2374   0.7531   0.0324
 -13.000   0.1616   0.05020   0.04644  -0.2363   0.7534   0.0350
 -12.500   0.2044   0.05120   0.04744  -0.2353   0.7538   0.0400
 -12.000   0.2470   0.05221   0.04847  -0.2342   0.7543   0.0456
 -11.500   0.2900   0.05322   0.04948  -0.2330   0.7550   0.0519
 -11.000   0.3341   0.05420   0.05048  -0.2319   0.7558   0.0603
 -10.500   0.3805   0.05504   0.05136  -0.2310   0.7564   0.0707
 -10.000   0.4287   0.05573   0.05209  -0.2304   0.7565   0.0851
  -9.500   0.4761   0.05646   0.05287  -0.2296   0.7567   0.1009
  -9.000   0.5237   0.05716   0.05363  -0.2287   0.7567   0.1210
  -8.500   0.5713   0.05785   0.05440  -0.2278   0.7568   0.1465
  -8.000   0.6185   0.05851   0.05511  -0.2267   0.7567   0.1684
  -7.500   0.6663   0.05912   0.05581  -0.2258   0.7564   0.1981
  -7.000   0.7147   0.05964   0.05641  -0.2248   0.7558   0.2266
  -6.500   0.7666   0.05992   0.05677  -0.2242   0.7547   0.2572
  -6.000   0.8244   0.05988   0.05682  -0.2244   0.7534   0.2887
  -5.500   0.9082   0.05888   0.05589  -0.2281   0.7518   0.3235
  -4.000   1.5661   0.01755   0.01431  -0.3035   0.6759   0.4815
  -3.000   1.1861   0.05297   0.04932  -0.2271   0.5357   0.4622
  -2.500   1.2184   0.05414   0.05011  -0.2235   0.4587   0.4815
  -2.000   1.2593   0.05472   0.05052  -0.2210   0.4165   0.4984
  -1.500   1.3075   0.05447   0.04998  -0.2196   0.3586   0.5124
  -1.000   1.3515   0.05448   0.04964  -0.2175   0.2941   0.5254
  -0.500   1.3921   0.05473   0.04955  -0.2149   0.2284   0.5363
  -0.000   1.4319   0.05500   0.04948  -0.2121   0.1683   0.5451
   0.500   1.4738   0.05511   0.04931  -0.2096   0.1195   0.5551
   1.000   1.5150   0.05529   0.04926  -0.2069   0.0841   0.5625
   1.500   1.5536   0.05578   0.04962  -0.2040   0.0623   0.5701
   2.000   1.5921   0.05637   0.05014  -0.2011   0.0493   0.5769
   2.500   1.6299   0.05702   0.05071  -0.1980   0.0395   0.5822
   3.000   1.6669   0.05773   0.05139  -0.1949   0.0324   0.5884
   3.500   1.7031   0.05851   0.05216  -0.1917   0.0274   0.5939
   4.000   1.7383   0.05936   0.05300  -0.1884   0.0235   0.5987
   4.500   1.7718   0.06029   0.05392  -0.1849   0.0201   0.6020
   5.000   1.8054   0.06127   0.05494  -0.1815   0.0185   0.6077
   5.500   1.8361   0.06244   0.05613  -0.1777   0.0162   0.6115
   6.000   1.8668   0.06368   0.05742  -0.1740   0.0152   0.6153
   6.500   1.8929   0.06529   0.05905  -0.1697   0.0137   0.6184
   7.000   1.9186   0.06695   0.06078  -0.1655   0.0128   0.6210
   7.500   1.9441   0.06858   0.06248  -0.1614   0.0120   0.6245
   8.000   1.9671   0.07042   0.06437  -0.1571   0.0111   0.6269
   8.500   1.9868   0.07257   0.06660  -0.1524   0.0102   0.6292
   9.000   2.0071   0.07475   0.06886  -0.1481   0.0099   0.6318
   9.500   2.0222   0.07746   0.07167  -0.1433   0.0094   0.6345
  10.000   2.0373   0.08011   0.07440  -0.1388   0.0089   0.6365
  10.500   2.0468   0.08337   0.07776  -0.1339   0.0083   0.6385
  11.000   2.0501   0.08739   0.08193  -0.1289   0.0079   0.6400
  11.500   2.0567   0.09118   0.08584  -0.1246   0.0077   0.6413
  12.000   2.0604   0.09539   0.09019  -0.1205   0.0075   0.6426
  12.500   2.0597   0.10027   0.09522  -0.1168   0.0073   0.6438
  13.000   2.0569   0.10558   0.10068  -0.1138   0.0071   0.6452
  13.500   2.0510   0.11152   0.10677  -0.1115   0.0069   0.6467
  14.000   2.0420   0.11803   0.11343  -0.1102   0.0066   0.6484
  14.500   2.0286   0.12531   0.12090  -0.1099   0.0064   0.6504
  15.000   2.0094   0.13359   0.12938  -0.1110   0.0061   0.6518
  15.500   1.9874   0.14261   0.13862  -0.1136   0.0059   0.6527
  16.000   1.9755   0.15022   0.14641  -0.1164   0.0059   0.6534
  16.500   1.9621   0.15820   0.15457  -0.1202   0.0058   0.6539
  17.000   1.9469   0.16666   0.16322  -0.1250   0.0057   0.6544
  17.500   1.9297   0.17569   0.17242  -0.1310   0.0056   0.6549
  18.000   1.9095   0.18543   0.18236  -0.1382   0.0056   0.6553
  18.500   1.8856   0.19613   0.19327  -0.1470   0.0055   0.6558
  19.000   1.8582   0.20801   0.20536  -0.1575   0.0054   0.6562
  19.500   1.8288   0.22077   0.21835  -0.1695   0.0054   0.6566
  20.000   1.7970   0.23470   0.23250  -0.1833   0.0053   0.6569
  20.500   1.7655   0.24931   0.24732  -0.1981   0.0052   0.6571
  21.000   1.7360   0.26416   0.26237  -0.2136   0.0052   0.6574
  21.500   1.7161   0.27691   0.27528  -0.2270   0.0050   0.6578
  22.000   1.7002   0.28896   0.28746  -0.2399   0.0049   0.6582
  22.500   1.6860   0.30105   0.29966  -0.2528   0.0047   0.6586
  23.000   1.6787   0.31088   0.30958  -0.2635   0.0044   0.6594
  23.500   1.6696   0.32193   0.32075  -0.2755   0.0042   0.6599
